<?xml version="1.0" encoding="UTF-8"?>

<!-- generated on Sun Aug 30 15:46:01 2020 by Eclipse SUMO duarouter Version 1.6.0
<configuration xmlns:xsi="http://www.w3.org/2001/XMLSchema-instance" xsi:noNamespaceSchemaLocation="http://sumo.dlr.de/xsd/duarouterConfiguration.xsd">

    <input>
        <net-file value="/home/simon5521/Sumo/2020-08-30-15-45-58/osm.net.xml"/>
        <route-files value="/home/simon5521/Sumo/2020-08-30-15-45-58/osm.bus.trips.xml"/>
    </input>

    <output>
        <output-file value="routes.rou.xml"/>
        <alternatives-output value="routes.rou.alt.xml"/>
    </output>

    <time>
        <begin value="0"/>
        <end value="3600.0"/>
    </time>

    <report>
        <no-warnings value="true"/>
        <ignore-errors value="true"/>
        <no-step-log value="true"/>
    </report>

</configuration>
-->

<routes xmlns:xsi="http://www.w3.org/2001/XMLSchema-instance" xsi:noNamespaceSchemaLocation="http://sumo.dlr.de/xsd/routes_file.xsd">
    <vType id="bus_bus" vClass="bus"/>
    <vehicle id="bus5" type="bus_bus" depart="69.36" departLane="best" departSpeed="max">
        <route edges="-156974362 156974368#0 156974368#1 431070345 504637557 519640244 172699279 172699280"/>
    </vehicle>
    <vehicle id="bus6" type="bus_bus" depart="83.23" departLane="best" departSpeed="max">
        <route edges="-172699280 156974370 519640239 516397654 504637556 172699277#0 172699277#1 156974364"/>
    </vehicle>
    <vehicle id="bus8" type="bus_bus" depart="110.98" departLane="best" departSpeed="max">
        <route edges="-156974362 156974368#0 156974368#1 431070345 504637557 519640244 172699279 172699280"/>
    </vehicle>
    <vehicle id="bus10" type="bus_bus" depart="138.72" departLane="best" departSpeed="max">
        <route edges="341528499#0 341528499#1 293068528 8034419#0 8034419#1 519640244 125067645 519640239 516397654 504637556 172699277#0 172699277#1 466393862#0 466393862#1 466393862#2"/>
    </vehicle>
    <vehicle id="bus11" type="bus_bus" depart="152.59" departLane="best" departSpeed="max">
        <route edges="341528499#0 341528499#1 293068528 8034419#0 8034419#1 519640244 125067645 519640239 516397654 504637556 172699277#0 172699277#1 466393862#0 466393862#1 466393862#2"/>
    </vehicle>
    <vehicle id="bus14" type="bus_bus" depart="194.21" departLane="best" departSpeed="max">
        <route edges="-25440373#2 -25440373#1 293068528 8034419#0 8034419#1 519640244 125067645 519640239 516397654 504637556 172699277#0 172699277#1 466393862#0 466393862#1 466393862#2"/>
    </vehicle>
    <vehicle id="bus15" type="bus_bus" depart="208.08" departLane="best" departSpeed="max">
        <route edges="-25440373#2 -25440373#1 293068528 8034419#0 8034419#1 519640244 125067645 519640239 516397654 504637556 172699277#0 172699277#1 466393862#0 466393862#1 466393862#2"/>
    </vehicle>
    <vehicle id="bus16" type="bus_bus" depart="221.95" departLane="best" departSpeed="max">
        <route edges="341528499#0 341528499#1 293068528 8034419#0 8034419#1 519640244 125067645 519640239 516397654 504637556 172699277#0 172699277#1 466393862#0 466393862#1 466393862#2"/>
    </vehicle>
    <vehicle id="bus19" type="bus_bus" depart="263.57" departLane="best" departSpeed="max">
        <route edges="-156974362 156974368#0 156974368#1 431070345 504637557 519640244 172699279 172699280"/>
    </vehicle>
    <vehicle id="bus20" type="bus_bus" depart="277.44" departLane="best" departSpeed="max">
        <route edges="-172699280 156974370 519640239 516397654 504637556 172699277#0 172699277#1 156974364"/>
    </vehicle>
    <vehicle id="bus21" type="bus_bus" depart="291.31" departLane="best" departSpeed="max">
        <route edges="-156974362 156974368#0 156974368#1 431070345 504637557 519640244 172699279 172699280"/>
    </vehicle>
    <vehicle id="bus22" type="bus_bus" depart="305.19" departLane="best" departSpeed="max">
        <route edges="-172699280 156974370 519640239 516397654 504637556 172699277#0 172699277#1 156974364"/>
    </vehicle>
    <vehicle id="bus25" type="bus_bus" depart="346.80" departLane="best" departSpeed="max">
        <route edges="-25440373#2 -25440373#1 293068528 8034419#0 8034419#1 519640244 125067645 519640239 516397654 504637556 172699277#0 172699277#1 466393862#0 466393862#1 466393862#2"/>
    </vehicle>
    <vehicle id="bus27" type="bus_bus" depart="374.55" departLane="best" departSpeed="max">
        <route edges="341528499#0 341528499#1 293068528 8034419#0 8034419#1 519640244 125067645 519640239 516397654 504637556 172699277#0 172699277#1 466393862#0 466393862#1 466393862#2"/>
    </vehicle>
    <vehicle id="bus28" type="bus_bus" depart="388.42" departLane="best" departSpeed="max">
        <route edges="341528499#0 341528499#1 293068528 8034419#0 8034419#1 519640244 125067645 519640239 516397654 504637556 172699277#0 172699277#1 466393862#0 466393862#1 466393862#2"/>
    </vehicle>
    <vehicle id="bus29" type="bus_bus" depart="402.29" departLane="best" departSpeed="max">
        <route edges="-172699280 156974370 519640239 516397654 504637556 172699277#0 172699277#1 466393862#0 466393862#1 466393862#2"/>
    </vehicle>
    <vehicle id="bus31" type="bus_bus" depart="430.03" departLane="best" departSpeed="max">
        <route edges="341528499#0 341528499#1 293068528 8034419#0 8034419#1 519640244 125067645 519640239 516397654 504637556 172699277#0 172699277#1 466393862#0 466393862#1 466393862#2"/>
    </vehicle>
    <vehicle id="bus33" type="bus_bus" depart="457.78" departLane="best" departSpeed="max">
        <route edges="-25440373#2 -25440373#1 293068528 8034419#0 8034419#1 519640244 125067645 519640239 516397654 504637556 172699277#0 172699277#1 466393862#0 466393862#1 466393862#2"/>
    </vehicle>
    <vehicle id="bus35" type="bus_bus" depart="485.52" departLane="best" departSpeed="max">
        <route edges="-156974362 156974368#0 156974368#1 431070345 504637557 519640244 172699279 172699280"/>
    </vehicle>
    <vehicle id="bus36" type="bus_bus" depart="499.40" departLane="best" departSpeed="max">
        <route edges="-172699280 156974370 519640239 516397654 504637556 172699277#0 172699277#1 156974364"/>
    </vehicle>
    <vehicle id="bus38" type="bus_bus" depart="527.14" departLane="best" departSpeed="max">
        <route edges="-25440373#2 -25440373#1 293068528 8034419#0 8034419#1 519640244 125067645 519640239 516397654 504637556 172699277#0 172699277#1 466393862#0 466393862#1 466393862#2"/>
    </vehicle>
    <vehicle id="bus39" type="bus_bus" depart="541.01" departLane="best" departSpeed="max">
        <route edges="-172699280 156974370 519640239 516397654 504637556 172699277#0 172699277#1 466393862#0 466393862#1 466393862#2"/>
    </vehicle>
    <vehicle id="bus42" type="bus_bus" depart="582.63" departLane="best" departSpeed="max">
        <route edges="-172699280 156974370 519640239 516397654 504637556 172699277#0 172699277#1 156974364"/>
    </vehicle>
    <vehicle id="bus44" type="bus_bus" depart="610.37" departLane="best" departSpeed="max">
        <route edges="-172699280 156974370 519640239 516397654 504637556 172699277#0 172699277#1 156974364"/>
    </vehicle>
    <vehicle id="bus48" type="bus_bus" depart="665.86" departLane="best" departSpeed="max">
        <route edges="-25440373#2 -25440373#1 293068528 8034419#0 8034419#1 519640244 125067645 519640239 516397654 504637556 172699277#0 172699277#1 466393862#0 466393862#1 466393862#2"/>
    </vehicle>
    <vehicle id="bus49" type="bus_bus" depart="679.73" departLane="best" departSpeed="max">
        <route edges="-172699280 156974370 519640239 516397654 504637556 172699277#0 172699277#1 466393862#0 466393862#1 466393862#2"/>
    </vehicle>
    <vehicle id="bus50" type="bus_bus" depart="693.60" departLane="best" departSpeed="max">
        <route edges="-25440373#2 -25440373#1 293068528 8034419#0 8034419#1 519640244 125067645 519640239 516397654 504637556 172699277#0 172699277#1 466393862#0 466393862#1 466393862#2"/>
    </vehicle>
    <vehicle id="bus52" type="bus_bus" depart="721.35" departLane="best" departSpeed="max">
        <route edges="-172699280 156974370 519640239 516397654 504637556 172699277#0 172699277#1 156974364"/>
    </vehicle>
    <vehicle id="bus53" type="bus_bus" depart="735.22" departLane="best" departSpeed="max">
        <route edges="-172699280 156974370 519640239 516397654 504637556 172699277#0 172699277#1 156974364"/>
    </vehicle>
    <vehicle id="bus54" type="bus_bus" depart="749.09" departLane="best" departSpeed="max">
        <route edges="-172699280 156974370 519640239 516397654 504637556 172699277#0 172699277#1 156974364"/>
    </vehicle>
    <vehicle id="bus55" type="bus_bus" depart="762.97" departLane="best" departSpeed="max">
        <route edges="-25440373#2 -25440373#1 293068528 8034419#0 8034419#1 519640244 125067645 519640239 516397654 504637556 172699277#0 172699277#1 466393862#0 466393862#1 466393862#2"/>
    </vehicle>
    <vehicle id="bus56" type="bus_bus" depart="776.84" departLane="best" departSpeed="max">
        <route edges="-25440373#2 -25440373#1 293068528 8034419#0 8034419#1 519640244 125067645 519640239 516397654 504637556 172699277#0 172699277#1 466393862#0 466393862#1 466393862#2"/>
    </vehicle>
    <vehicle id="bus58" type="bus_bus" depart="804.58" departLane="best" departSpeed="max">
        <route edges="-156974362 156974368#0 156974368#1 431070345 504637557 519640244 172699279 172699280"/>
    </vehicle>
    <vehicle id="bus60" type="bus_bus" depart="832.33" departLane="best" departSpeed="max">
        <route edges="-172699280 156974370 519640239 516397654 504637556 172699277#0 172699277#1 156974364"/>
    </vehicle>
    <vehicle id="bus62" type="bus_bus" depart="860.07" departLane="best" departSpeed="max">
        <route edges="-172699280 156974370 519640239 516397654 504637556 172699277#0 172699277#1 156974364"/>
    </vehicle>
    <vehicle id="bus63" type="bus_bus" depart="873.94" departLane="best" departSpeed="max">
        <route edges="-156974362 156974368#0 156974368#1 431070345 504637557 519640244 172699279 172699280"/>
    </vehicle>
    <vehicle id="bus65" type="bus_bus" depart="901.69" departLane="best" departSpeed="max">
        <route edges="-25440373#2 -25440373#1 293068528 8034419#0 8034419#1 519640244 125067645 519640239 516397654 504637556 172699277#0 172699277#1 466393862#0 466393862#1 466393862#2"/>
    </vehicle>
    <vehicle id="bus66" type="bus_bus" depart="915.56" departLane="best" departSpeed="max">
        <route edges="-172699280 156974370 519640239 516397654 504637556 172699277#0 172699277#1 156974364"/>
    </vehicle>
    <vehicle id="bus67" type="bus_bus" depart="929.43" departLane="best" departSpeed="max">
        <route edges="-25440373#2 -25440373#1 293068528 8034419#0 8034419#1 519640244 125067645 519640239 516397654 504637556 172699277#0 172699277#1 466393862#0 466393862#1 466393862#2"/>
    </vehicle>
    <vehicle id="bus68" type="bus_bus" depart="943.30" departLane="best" departSpeed="max">
        <route edges="-172699280 156974370 519640239 516397654 504637556 172699277#0 172699277#1 466393862#0 466393862#1 466393862#2"/>
    </vehicle>
    <vehicle id="bus70" type="bus_bus" depart="971.05" departLane="best" departSpeed="max">
        <route edges="-156974362 156974368#0 156974368#1 431070345 504637557 519640244 172699279 172699280"/>
    </vehicle>
    <vehicle id="bus72" type="bus_bus" depart="998.79" departLane="best" departSpeed="max">
        <route edges="-172699280 156974370 519640239 516397654 504637556 172699277#0 172699277#1 156974364"/>
    </vehicle>
    <vehicle id="bus73" type="bus_bus" depart="1012.66" departLane="best" departSpeed="max">
        <route edges="341528499#0 341528499#1 293068528 8034419#0 8034419#1 519640244 125067645 519640239 516397654 504637556 172699277#0 172699277#1 466393862#0 466393862#1 466393862#2"/>
    </vehicle>
    <vehicle id="bus74" type="bus_bus" depart="1026.54" departLane="best" departSpeed="max">
        <route edges="341528499#0 341528499#1 293068528 8034419#0 8034419#1 519640244 125067645 519640239 516397654 504637556 172699277#0 172699277#1 466393862#0 466393862#1 466393862#2"/>
    </vehicle>
    <vehicle id="bus76" type="bus_bus" depart="1054.28" departLane="best" departSpeed="max">
        <route edges="-172699280 156974370 519640239 516397654 504637556 172699277#0 172699277#1 156974364"/>
    </vehicle>
    <vehicle id="bus77" type="bus_bus" depart="1068.15" departLane="best" departSpeed="max">
        <route edges="341528499#0 341528499#1 293068528 8034419#0 8034419#1 519640244 125067645 519640239 516397654 504637556 172699277#0 172699277#1 466393862#0 466393862#1 466393862#2"/>
    </vehicle>
    <vehicle id="bus78" type="bus_bus" depart="1082.02" departLane="best" departSpeed="max">
        <route edges="-172699280 156974370 519640239 516397654 504637556 172699277#0 172699277#1 156974364"/>
    </vehicle>
    <vehicle id="bus79" type="bus_bus" depart="1095.90" departLane="best" departSpeed="max">
        <route edges="-172699280 156974370 519640239 516397654 504637556 172699277#0 172699277#1 466393862#0 466393862#1 466393862#2"/>
    </vehicle>
    <vehicle id="bus81" type="bus_bus" depart="1123.64" departLane="best" departSpeed="max">
        <route edges="-156974362 156974368#0 156974368#1 431070345 504637557 519640244 172699279 172699280"/>
    </vehicle>
    <vehicle id="bus82" type="bus_bus" depart="1137.51" departLane="best" departSpeed="max">
        <route edges="-156974362 156974368#0 156974368#1 431070345 504637557 519640244 172699279 172699280"/>
    </vehicle>
    <vehicle id="bus84" type="bus_bus" depart="1165.26" departLane="best" departSpeed="max">
        <route edges="-172699280 156974370 519640239 516397654 504637556 172699277#0 172699277#1 466393862#0 466393862#1 466393862#2"/>
    </vehicle>
    <vehicle id="bus85" type="bus_bus" depart="1179.13" departLane="best" departSpeed="max">
        <route edges="-156974362 156974368#0 156974368#1 431070345 504637557 519640244 172699279 172699280"/>
    </vehicle>
    <vehicle id="bus86" type="bus_bus" depart="1193.00" departLane="best" departSpeed="max">
        <route edges="341528499#0 341528499#1 293068528 8034419#0 8034419#1 519640244 125067645 519640239 516397654 504637556 172699277#0 172699277#1 466393862#0 466393862#1 466393862#2"/>
    </vehicle>
    <vehicle id="bus87" type="bus_bus" depart="1206.87" departLane="best" departSpeed="max">
        <route edges="-172699280 156974370 519640239 516397654 504637556 172699277#0 172699277#1 156974364"/>
    </vehicle>
    <vehicle id="bus89" type="bus_bus" depart="1234.62" departLane="best" departSpeed="max">
        <route edges="-172699280 156974370 519640239 516397654 504637556 172699277#0 172699277#1 156974364"/>
    </vehicle>
    <vehicle id="bus90" type="bus_bus" depart="1248.49" departLane="best" departSpeed="max">
        <route edges="-172699280 156974370 519640239 516397654 504637556 172699277#0 172699277#1 156974364"/>
    </vehicle>
    <vehicle id="bus91" type="bus_bus" depart="1262.36" departLane="best" departSpeed="max">
        <route edges="-172699280 156974370 519640239 516397654 504637556 172699277#0 172699277#1 156974364"/>
    </vehicle>
    <vehicle id="bus92" type="bus_bus" depart="1276.23" departLane="best" departSpeed="max">
        <route edges="341528499#0 341528499#1 293068528 8034419#0 8034419#1 519640244 125067645 519640239 516397654 504637556 172699277#0 172699277#1 466393862#0 466393862#1 466393862#2"/>
    </vehicle>
    <vehicle id="bus93" type="bus_bus" depart="1290.10" departLane="best" departSpeed="max">
        <route edges="-172699280 156974370 519640239 516397654 504637556 172699277#0 172699277#1 156974364"/>
    </vehicle>
    <vehicle id="bus95" type="bus_bus" depart="1317.85" departLane="best" departSpeed="max">
        <route edges="341528499#0 341528499#1 293068528 8034419#0 8034419#1 519640244 125067645 519640239 516397654 504637556 172699277#0 172699277#1 466393862#0 466393862#1 466393862#2"/>
    </vehicle>
    <vehicle id="bus96" type="bus_bus" depart="1331.72" departLane="best" departSpeed="max">
        <route edges="-172699280 156974370 519640239 516397654 504637556 172699277#0 172699277#1 466393862#0 466393862#1 466393862#2"/>
    </vehicle>
    <vehicle id="bus99" type="bus_bus" depart="1373.34" departLane="best" departSpeed="max">
        <route edges="-25440373#2 -25440373#1 293068528 8034419#0 8034419#1 519640244 125067645 519640239 516397654 504637556 172699277#0 172699277#1 466393862#0 466393862#1 466393862#2"/>
    </vehicle>
    <vehicle id="bus100" type="bus_bus" depart="1387.21" departLane="best" departSpeed="max">
        <route edges="-25440373#2 -25440373#1 293068528 8034419#0 8034419#1 519640244 125067645 519640239 516397654 504637556 172699277#0 172699277#1 466393862#0 466393862#1 466393862#2"/>
    </vehicle>
    <vehicle id="bus102" type="bus_bus" depart="1414.95" departLane="best" departSpeed="max">
        <route edges="-25440373#2 -25440373#1 293068528 8034419#0 8034419#1 519640244 125067645 519640239 516397654 504637556 172699277#0 172699277#1 466393862#0 466393862#1 466393862#2"/>
    </vehicle>
    <vehicle id="bus105" type="bus_bus" depart="1456.57" departLane="best" departSpeed="max">
        <route edges="-25440373#2 -25440373#1 293068528 8034419#0 8034419#1 519640244 125067645 519640239 516397654 504637556 172699277#0 172699277#1 466393862#0 466393862#1 466393862#2"/>
    </vehicle>
    <vehicle id="bus106" type="bus_bus" depart="1470.44" departLane="best" departSpeed="max">
        <route edges="-25440373#2 -25440373#1 293068528 8034419#0 8034419#1 519640244 125067645 519640239 516397654 504637556 172699277#0 172699277#1 466393862#0 466393862#1 466393862#2"/>
    </vehicle>
    <vehicle id="bus108" type="bus_bus" depart="1498.19" departLane="best" departSpeed="max">
        <route edges="-172699280 156974370 519640239 516397654 504637556 172699277#0 172699277#1 156974364"/>
    </vehicle>
    <vehicle id="bus109" type="bus_bus" depart="1512.06" departLane="best" departSpeed="max">
        <route edges="341528499#0 341528499#1 293068528 8034419#0 8034419#1 519640244 125067645 519640239 516397654 504637556 172699277#0 172699277#1 466393862#0 466393862#1 466393862#2"/>
    </vehicle>
    <vehicle id="bus110" type="bus_bus" depart="1525.93" departLane="best" departSpeed="max">
        <route edges="-172699280 156974370 519640239 516397654 504637556 172699277#0 172699277#1 466393862#0 466393862#1 466393862#2"/>
    </vehicle>
    <vehicle id="bus111" type="bus_bus" depart="1539.80" departLane="best" departSpeed="max">
        <route edges="341528499#0 341528499#1 293068528 8034419#0 8034419#1 519640244 125067645 519640239 516397654 504637556 172699277#0 172699277#1 466393862#0 466393862#1 466393862#2"/>
    </vehicle>
    <vehicle id="bus112" type="bus_bus" depart="1553.67" departLane="best" departSpeed="max">
        <route edges="-172699280 156974370 519640239 516397654 504637556 172699277#0 172699277#1 156974364"/>
    </vehicle>
    <vehicle id="bus114" type="bus_bus" depart="1581.42" departLane="best" departSpeed="max">
        <route edges="-25440373#2 -25440373#1 293068528 8034419#0 8034419#1 519640244 125067645 519640239 516397654 504637556 172699277#0 172699277#1 466393862#0 466393862#1 466393862#2"/>
    </vehicle>
    <vehicle id="bus115" type="bus_bus" depart="1595.29" departLane="best" departSpeed="max">
        <route edges="341528499#0 341528499#1 293068528 8034419#0 8034419#1 519640244 125067645 519640239 516397654 504637556 172699277#0 172699277#1 466393862#0 466393862#1 466393862#2"/>
    </vehicle>
    <vehicle id="bus116" type="bus_bus" depart="1609.16" departLane="best" departSpeed="max">
        <route edges="-172699280 156974370 519640239 516397654 504637556 172699277#0 172699277#1 466393862#0 466393862#1 466393862#2"/>
    </vehicle>
    <vehicle id="bus117" type="bus_bus" depart="1623.04" departLane="best" departSpeed="max">
        <route edges="-172699280 156974370 519640239 516397654 504637556 172699277#0 172699277#1 466393862#0 466393862#1 466393862#2"/>
    </vehicle>
    <vehicle id="bus123" type="bus_bus" depart="1706.27" departLane="best" departSpeed="max">
        <route edges="-25440373#2 -25440373#1 293068528 8034419#0 8034419#1 519640244 125067645 519640239 516397654 504637556 172699277#0 172699277#1 466393862#0 466393862#1 466393862#2"/>
    </vehicle>
    <vehicle id="bus125" type="bus_bus" depart="1734.01" departLane="best" departSpeed="max">
        <route edges="-156974362 156974368#0 156974368#1 431070345 504637557 519640244 172699279 172699280"/>
    </vehicle>
    <vehicle id="bus126" type="bus_bus" depart="1747.88" departLane="best" departSpeed="max">
        <route edges="-172699280 156974370 519640239 516397654 504637556 172699277#0 172699277#1 466393862#0 466393862#1 466393862#2"/>
    </vehicle>
    <vehicle id="bus134" type="bus_bus" depart="1858.86" departLane="best" departSpeed="max">
        <route edges="-25440373#2 -25440373#1 293068528 8034419#0 8034419#1 519640244 125067645 519640239 516397654 504637556 172699277#0 172699277#1 466393862#0 466393862#1 466393862#2"/>
    </vehicle>
    <vehicle id="bus135" type="bus_bus" depart="1872.73" departLane="best" departSpeed="max">
        <route edges="-172699280 156974370 519640239 516397654 504637556 172699277#0 172699277#1 466393862#0 466393862#1 466393862#2"/>
    </vehicle>
    <vehicle id="bus136" type="bus_bus" depart="1886.60" departLane="best" departSpeed="max">
        <route edges="-172699280 156974370 519640239 516397654 504637556 172699277#0 172699277#1 466393862#0 466393862#1 466393862#2"/>
    </vehicle>
    <vehicle id="bus137" type="bus_bus" depart="1900.48" departLane="best" departSpeed="max">
        <route edges="-172699280 156974370 519640239 516397654 504637556 172699277#0 172699277#1 466393862#0 466393862#1 466393862#2"/>
    </vehicle>
    <vehicle id="bus140" type="bus_bus" depart="1942.09" departLane="best" departSpeed="max">
        <route edges="341528499#0 341528499#1 293068528 8034419#0 8034419#1 519640244 125067645 519640239 516397654 504637556 172699277#0 172699277#1 466393862#0 466393862#1 466393862#2"/>
    </vehicle>
    <vehicle id="bus141" type="bus_bus" depart="1955.97" departLane="best" departSpeed="max">
        <route edges="-172699280 156974370 519640239 516397654 504637556 172699277#0 172699277#1 156974364"/>
    </vehicle>
    <vehicle id="bus142" type="bus_bus" depart="1969.84" departLane="best" departSpeed="max">
        <route edges="-25440373#2 -25440373#1 293068528 8034419#0 8034419#1 519640244 125067645 519640239 516397654 504637556 172699277#0 172699277#1 466393862#0 466393862#1 466393862#2"/>
    </vehicle>
    <vehicle id="bus143" type="bus_bus" depart="1983.71" departLane="best" departSpeed="max">
        <route edges="341528499#0 341528499#1 293068528 8034419#0 8034419#1 519640244 125067645 519640239 516397654 504637556 172699277#0 172699277#1 466393862#0 466393862#1 466393862#2"/>
    </vehicle>
    <vehicle id="bus144" type="bus_bus" depart="1997.58" departLane="best" departSpeed="max">
        <route edges="-172699280 156974370 519640239 516397654 504637556 172699277#0 172699277#1 466393862#0 466393862#1 466393862#2"/>
    </vehicle>
    <vehicle id="bus145" type="bus_bus" depart="2011.45" departLane="best" departSpeed="max">
        <route edges="-25440373#2 -25440373#1 293068528 8034419#0 8034419#1 519640244 125067645 519640239 516397654 504637556 172699277#0 172699277#1 466393862#0 466393862#1 466393862#2"/>
    </vehicle>
    <vehicle id="bus146" type="bus_bus" depart="2025.33" departLane="best" departSpeed="max">
        <route edges="341528499#0 341528499#1 293068528 8034419#0 8034419#1 519640244 125067645 519640239 516397654 504637556 172699277#0 172699277#1 466393862#0 466393862#1 466393862#2"/>
    </vehicle>
    <vehicle id="bus149" type="bus_bus" depart="2066.94" departLane="best" departSpeed="max">
        <route edges="-172699280 156974370 519640239 516397654 504637556 172699277#0 172699277#1 156974364"/>
    </vehicle>
    <vehicle id="bus150" type="bus_bus" depart="2080.81" departLane="best" departSpeed="max">
        <route edges="-172699280 156974370 519640239 516397654 504637556 172699277#0 172699277#1 156974364"/>
    </vehicle>
    <vehicle id="bus153" type="bus_bus" depart="2122.43" departLane="best" departSpeed="max">
        <route edges="341528499#0 341528499#1 293068528 8034419#0 8034419#1 519640244 125067645 519640239 516397654 504637556 172699277#0 172699277#1 466393862#0 466393862#1 466393862#2"/>
    </vehicle>
    <vehicle id="bus155" type="bus_bus" depart="2150.17" departLane="best" departSpeed="max">
        <route edges="-172699280 156974370 519640239 516397654 504637556 172699277#0 172699277#1 156974364"/>
    </vehicle>
    <vehicle id="bus157" type="bus_bus" depart="2177.92" departLane="best" departSpeed="max">
        <route edges="-172699280 156974370 519640239 516397654 504637556 172699277#0 172699277#1 466393862#0 466393862#1 466393862#2"/>
    </vehicle>
    <vehicle id="bus159" type="bus_bus" depart="2205.66" departLane="best" departSpeed="max">
        <route edges="-172699280 156974370 519640239 516397654 504637556 172699277#0 172699277#1 466393862#0 466393862#1 466393862#2"/>
    </vehicle>
    <vehicle id="bus160" type="bus_bus" depart="2219.54" departLane="best" departSpeed="max">
        <route edges="-172699280 156974370 519640239 516397654 504637556 172699277#0 172699277#1 466393862#0 466393862#1 466393862#2"/>
    </vehicle>
    <vehicle id="bus163" type="bus_bus" depart="2261.15" departLane="best" departSpeed="max">
        <route edges="-156974362 156974368#0 156974368#1 431070345 504637557 519640244 172699279 172699280"/>
    </vehicle>
    <vehicle id="bus164" type="bus_bus" depart="2275.02" departLane="best" departSpeed="max">
        <route edges="-156974362 156974368#0 156974368#1 431070345 504637557 519640244 172699279 172699280"/>
    </vehicle>
    <vehicle id="bus166" type="bus_bus" depart="2302.77" departLane="best" departSpeed="max">
        <route edges="-156974362 156974368#0 156974368#1 431070345 504637557 519640244 172699279 172699280"/>
    </vehicle>
    <vehicle id="bus167" type="bus_bus" depart="2316.64" departLane="best" departSpeed="max">
        <route edges="-172699280 156974370 519640239 516397654 504637556 172699277#0 172699277#1 466393862#0 466393862#1 466393862#2"/>
    </vehicle>
    <vehicle id="bus169" type="bus_bus" depart="2344.38" departLane="best" departSpeed="max">
        <route edges="-172699280 156974370 519640239 516397654 504637556 172699277#0 172699277#1 156974364"/>
    </vehicle>
    <vehicle id="bus171" type="bus_bus" depart="2372.13" departLane="best" departSpeed="max">
        <route edges="-156974362 156974368#0 156974368#1 431070345 504637557 519640244 172699279 172699280"/>
    </vehicle>
    <vehicle id="bus172" type="bus_bus" depart="2386.00" departLane="best" departSpeed="max">
        <route edges="-156974362 156974368#0 156974368#1 431070345 504637557 519640244 172699279 172699280"/>
    </vehicle>
    <vehicle id="bus173" type="bus_bus" depart="2399.87" departLane="best" departSpeed="max">
        <route edges="-172699280 156974370 519640239 516397654 504637556 172699277#0 172699277#1 156974364"/>
    </vehicle>
    <vehicle id="bus176" type="bus_bus" depart="2441.49" departLane="best" departSpeed="max">
        <route edges="-156974362 156974368#0 156974368#1 431070345 504637557 519640244 172699279 172699280"/>
    </vehicle>
    <vehicle id="bus177" type="bus_bus" depart="2455.36" departLane="best" departSpeed="max">
        <route edges="-25440373#2 -25440373#1 293068528 8034419#0 8034419#1 519640244 125067645 519640239 516397654 504637556 172699277#0 172699277#1 466393862#0 466393862#1 466393862#2"/>
    </vehicle>
    <vehicle id="bus178" type="bus_bus" depart="2469.23" departLane="best" departSpeed="max">
        <route edges="-172699280 156974370 519640239 516397654 504637556 172699277#0 172699277#1 466393862#0 466393862#1 466393862#2"/>
    </vehicle>
    <vehicle id="bus179" type="bus_bus" depart="2483.10" departLane="best" departSpeed="max">
        <route edges="-172699280 156974370 519640239 516397654 504637556 172699277#0 172699277#1 466393862#0 466393862#1 466393862#2"/>
    </vehicle>
    <vehicle id="bus180" type="bus_bus" depart="2496.98" departLane="best" departSpeed="max">
        <route edges="-156974362 156974368#0 156974368#1 431070345 504637557 519640244 172699279 172699280"/>
    </vehicle>
    <vehicle id="bus182" type="bus_bus" depart="2524.72" departLane="best" departSpeed="max">
        <route edges="-172699280 156974370 519640239 516397654 504637556 172699277#0 172699277#1 156974364"/>
    </vehicle>
    <vehicle id="bus183" type="bus_bus" depart="2538.59" departLane="best" departSpeed="max">
        <route edges="-172699280 156974370 519640239 516397654 504637556 172699277#0 172699277#1 466393862#0 466393862#1 466393862#2"/>
    </vehicle>
    <vehicle id="bus184" type="bus_bus" depart="2552.47" departLane="best" departSpeed="max">
        <route edges="-156974362 156974368#0 156974368#1 431070345 504637557 519640244 172699279 172699280"/>
    </vehicle>
    <vehicle id="bus185" type="bus_bus" depart="2566.34" departLane="best" departSpeed="max">
        <route edges="-156974362 156974368#0 156974368#1 431070345 504637557 519640244 172699279 172699280"/>
    </vehicle>
    <vehicle id="bus186" type="bus_bus" depart="2580.21" departLane="best" departSpeed="max">
        <route edges="341528499#0 341528499#1 293068528 8034419#0 8034419#1 519640244 125067645 519640239 516397654 504637556 172699277#0 172699277#1 466393862#0 466393862#1 466393862#2"/>
    </vehicle>
    <vehicle id="bus188" type="bus_bus" depart="2607.95" departLane="best" departSpeed="max">
        <route edges="-172699280 156974370 519640239 516397654 504637556 172699277#0 172699277#1 466393862#0 466393862#1 466393862#2"/>