<?xml version="1.0" encoding="UTF-8"?>

<!-- generated on 2020. aug. 25., kedd, 00:53:54 CEST by Eclipse SUMO netedit Version 1.6.0
<configuration xmlns:xsi="http://www.w3.org/2001/XMLSchema-instance" xsi:noNamespaceSchemaLocation="http://sumo.dlr.de/xsd/netconvertConfiguration.xsd">

    <input>
        <sumo-net-file value="/home/simon5521/Projects/TMIT_IoT_verseny_2020/TrafficSimulation/test1.net.xml"/>
    </input>

    <output>
        <output-file value="/home/simon5521/Projects/TMIT_IoT_verseny_2020/TrafficSimulation/test1.net.xml"/>
    </output>

    <processing>
        <geometry.min-radius.fix.railways value="false"/>
        <geometry.max-grade.fix value="false"/>
        <offset.disable-normalization value="true"/>
        <lefthand value="false"/>
    </processing>

    <junctions>
        <no-turnarounds value="true"/>
        <junctions.corner-detail value="5"/>
        <junctions.limit-turn-speed value="5.5"/>
        <rectangular-lane-cut value="false"/>
    </junctions>

    <pedestrian>
        <walkingareas value="false"/>
    </pedestrian>

    <netedit>
        <additional-files value="/home/simon5521/Projects/TMIT_IoT_verseny_2020/TrafficSimulation/test1.add.xml"/>
        <route-files value="/home/simon5521/Projects/TMIT_IoT_verseny_2020/TrafficSimulation/test1.rou.xml"/>
    </netedit>

    <report>
        <aggregate-warnings value="5"/>
    </report>

</configuration>
-->

<additional xmlns:xsi="http://www.w3.org/2001/XMLSchema-instance" xsi:noNamespaceSchemaLocation="http://sumo.dlr.de/xsd/additional_file.xsd">
    <e2Detector id="e2Detector_gneE10_0_0" lane="gneE10_0" pos="8.37" length="10.00" freq="900.00" file="e2Detector_gneE10_0_0.xml"/>
</additional>
