<?xml version="1.0" encoding="UTF-8"?>

<!-- generated on Sun Aug 30 15:46:00 2020 by Eclipse SUMO polyconvert Version 1.6.0
<configuration xmlns:xsi="http://www.w3.org/2001/XMLSchema-instance" xsi:noNamespaceSchemaLocation="http://sumo.dlr.de/xsd/polyconvertConfiguration.xsd">

    <input>
        <net-file value="osm.net.xml"/>
        <osm-files value="osm_bbox.osm.xml"/>
        <osm.keep-full-type value="true"/>
        <type-file value="/usr/share/sumo/data/typemap/osmPolyconvert.typ.xml"/>
    </input>

    <output>
        <output-file value="osm.poly.xml"/>
    </output>

    <processing>
        <poi-layer-offset value="5"/>
    </processing>

    <report>
        <verbose value="true"/>
    </report>

</configuration>
-->

<additional xmlns:xsi="http://www.w3.org/2001/XMLSchema-instance" xsi:noNamespaceSchemaLocation="http://sumo.dlr.de/xsd/additional_file.xsd">
    <location netOffset="-352011.26,-5261628.91" convBoundary="-0.00,-2612.04,2543.19,1599.36" origBoundary="19.035095,47.468255,19.069903,47.505726" projParameter="+proj=utm +zone=34 +ellps=WGS84 +datum=WGS84 +units=m +no_defs"/>

    <poly id="156974364" type="leisure.park" color="207,245,201" fill="0" layer="-2.00" shape="349.991902,768.649860 338.230979,765.176925"/>
    <poly id="156974367" type="leisure.park" color="207,245,201" fill="0" layer="-2.00" shape="401.097889,756.273712 408.753303,747.562595 413.716963,738.496819 424.506914,709.746053"/>
    <poly id="197110386" type="historic.bridge" color="128,255,128" fill="1" layer="-1.00" shape="750.539328,876.228948 831.628365,897.040561 862.567473,906.515154 861.204843,910.763933 871.125863,913.917194 870.602117,915.565017 869.976290,917.348847 872.550331,919.619337 874.275924,922.911970 874.872396,925.654752 874.656401,929.352051 873.633335,936.016466 876.153336,934.040444 882.814927,928.046016 886.399839,925.264818 897.617969,885.895683 896.762655,883.048207 893.229758,870.215498 892.102152,866.129418 889.369576,874.638263 888.098888,877.149989 886.806419,879.095140 884.838950,881.168463 882.428255,882.997170 880.284740,884.062994 878.108560,884.429076 877.810726,885.770974 877.349472,887.806427 868.429819,885.817822 867.555844,889.720708 831.096162,881.274546 754.275715,861.500877 755.379150,857.136273 751.059039,852.263191 744.780247,855.201231 743.853889,858.816335 558.103046,810.996135 559.307614,806.762380 554.995892,801.333218 548.717412,804.282581 547.681026,808.311938 458.486878,785.351061 455.175502,784.033425 450.941569,781.693765 446.734991,779.542460 444.140999,777.984337 442.061930,776.524432 439.716184,774.948931 435.659251,776.341177 434.254596,776.821407 434.278707,780.167954 434.310358,785.905137 432.819941,792.247832 430.451345,795.443442 427.769282,799.058404 428.385302,800.177119 429.863701,802.919862 432.833079,801.732962 436.902253,800.229203 440.808861,799.152111 443.858670,798.763836 448.179637,798.877273 543.865907,823.186707 542.747277,827.540621 546.973010,832.249135 553.215854,830.279235 554.333090,825.869758 740.072339,873.545550 738.809690,878.470170 743.034946,883.167708 749.278069,881.209131 750.539328,876.228948"/>
    <poly id="197110386#1" type="man_made.bridge" color="255,230,230" fill="1" layer="-1.00" shape="750.539328,876.228948 831.628365,897.040561 862.567473,906.515154 861.204843,910.763933 871.125863,913.917194 870.602117,915.565017 869.976290,917.348847 872.550331,919.619337 874.275924,922.911970 874.872396,925.654752 874.656401,929.352051 873.633335,936.016466 876.153336,934.040444 882.814927,928.046016 886.399839,925.264818 897.617969,885.895683 896.762655,883.048207 893.229758,870.215498 892.102152,866.129418 889.369576,874.638263 888.098888,877.149989 886.806419,879.095140 884.838950,881.168463 882.428255,882.997170 880.284740,884.062994 878.108560,884.429076 877.810726,885.770974 877.349472,887.806427 868.429819,885.817822 867.555844,889.720708 831.096162,881.274546 754.275715,861.500877 755.379150,857.136273 751.059039,852.263191 744.780247,855.201231 743.853889,858.816335 558.103046,810.996135 559.307614,806.762380 554.995892,801.333218 548.717412,804.282581 547.681026,808.311938 458.486878,785.351061 455.175502,784.033425 450.941569,781.693765 446.734991,779.542460 444.140999,777.984337 442.061930,776.524432 439.716184,774.948931 435.659251,776.341177 434.254596,776.821407 434.278707,780.167954 434.310358,785.905137 432.819941,792.247832 430.451345,795.443442 427.769282,799.058404 428.385302,800.177119 429.863701,802.919862 432.833079,801.732962 436.902253,800.229203 440.808861,799.152111 443.858670,798.763836 448.179637,798.877273 543.865907,823.186707 542.747277,827.540621 546.973010,832.249135 553.215854,830.279235 554.333090,825.869758 740.072339,873.545550 738.809690,878.470170 743.034946,883.167708 749.278069,881.209131 750.539328,876.228948"/>
    <poly id="197110386#2" type="tourism.attraction" color="207,245,201" fill="1" layer="-2.00" shape="750.539328,876.228948 831.628365,897.040561 862.567473,906.515154 861.204843,910.763933 871.125863,913.917194 870.602117,915.565017 869.976290,917.348847 872.550331,919.619337 874.275924,922.911970 874.872396,925.654752 874.656401,929.352051 873.633335,936.016466 876.153336,934.040444 882.814927,928.046016 886.399839,925.264818 897.617969,885.895683 896.762655,883.048207 893.229758,870.215498 892.102152,866.129418 889.369576,874.638263 888.098888,877.149989 886.806419,879.095140 884.838950,881.168463 882.428255,882.997170 880.284740,884.062994 878.108560,884.429076 877.810726,885.770974 877.349472,887.806427 868.429819,885.817822 867.555844,889.720708 831.096162,881.274546 754.275715,861.500877 755.379150,857.136273 751.059039,852.263191 744.780247,855.201231 743.853889,858.816335 558.103046,810.996135 559.307614,806.762380 554.995892,801.333218 548.717412,804.282581 547.681026,808.311938 458.486878,785.351061 455.175502,784.033425 450.941569,781.693765 446.734991,779.542460 444.140999,777.984337 442.061930,776.524432 439.716184,774.948931 435.659251,776.341177 434.254596,776.821407 434.278707,780.167954 434.310358,785.905137 432.819941,792.247832 430.451345,795.443442 427.769282,799.058404 428.385302,800.177119 429.863701,802.919862 432.833079,801.732962 436.902253,800.229203 440.808861,799.152111 443.858670,798.763836 448.179637,798.877273 543.865907,823.186707 542.747277,827.540621 546.973010,832.249135 553.215854,830.279235 554.333090,825.869758 740.072339,873.545550 738.809690,878.470170 743.034946,883.167708 749.278069,881.209131 750.539328,876.228948"/>
    <poly id="228292811" type="leisure.park" color="207,245,201" fill="0" layer="-2.00" shape="349.991902,768.649860 340.297561,789.433369 298.209232,888.252729 278.825127,924.593403 265.639722,943.485822 206.331943,925.245386 170.240407,958.850388 177.514638,922.548373 146.152095,919.926939 146.105924,901.101699"/>
    <poly id="249941107" type="building.yes" color="255,230,230" fill="1" layer="-1.00" shape="428.860101,873.980498 423.665612,894.505815 410.167836,891.176637 404.260776,889.724347 391.697146,886.683010 396.341458,863.769593 410.849462,868.307593 408.493984,880.087617 414.352540,881.707938 416.911405,870.223029 428.860101,873.980498"/>
    <poly id="249941127" type="building.yes" color="255,230,230" fill="1" layer="-1.00" shape="404.260776,889.724347 401.299258,904.066172 388.753803,901.146705 391.697146,886.683010 404.260776,889.724347"/>
    <poly id="249941132" type="building.yes" color="255,230,230" fill="1" layer="-1.00" shape="396.341458,863.769593 404.371617,824.212911 438.380185,834.030451 428.860101,873.980498 416.911405,870.223029 410.849462,868.307593 396.341458,863.769593"/>
    <poly id="249941132#1" type="historic.yes" color="128,255,128" fill="1" layer="-1.00" shape="396.341458,863.769593 404.371617,824.212911 438.380185,834.030451 428.860101,873.980498 416.911405,870.223029 410.849462,868.307593 396.341458,863.769593"/>
    <poly id="249941149" type="building.yes" color="255,230,230" fill="1" layer="-1.00" shape="423.665612,894.505815 419.964925,909.122035 411.761687,907.160529 414.152178,898.860220 411.996300,898.536516 412.315667,896.259956 408.878592,895.334724 410.167836,891.176637 423.665612,894.505815"/>
    <poly id="249941151" type="building.yes" color="255,230,230" fill="1" layer="-1.00" shape="388.753803,901.146705 378.559433,951.388868 393.228881,954.866330 407.519238,958.253310 419.964925,909.122035 411.761687,907.160529 407.546679,906.165960 407.144678,907.855240 400.761216,906.337130 401.299258,904.066172 388.753803,901.146705"/>
    <poly id="249941157" type="building.yes" color="255,230,230" fill="1" layer="-1.00" shape="411.076511,859.383528 415.737388,841.006723 422.547704,842.714248 417.887087,861.102160 411.076511,859.383528"/>
    <poly id="249941157#1" type="historic.yes" color="128,255,128" fill="1" layer="-1.00" shape="411.076511,859.383528 415.737388,841.006723 422.547704,842.714248 417.887087,861.102160 411.076511,859.383528"/>
    <poly id="249941160" type="building.yes" color="255,230,230" fill="1" layer="-1.00" shape="394.924751,937.553993 399.661458,917.707399 404.581610,918.873216 399.844888,938.719806 394.924751,937.553993"/>
    <poly id="249943326" type="building.yes" color="255,230,230" fill="1" layer="-1.00" shape="328.975457,886.653262 371.898936,896.478935 375.485800,895.276422 382.331316,861.343011 353.044163,854.965097 353.733255,851.811832 347.733563,850.573216 344.781311,858.409566 341.112282,874.870986 332.614650,872.594533 328.975457,886.653262"/>
    <poly id="249943329" type="building.yes" color="255,230,230" fill="1" layer="-1.00" shape="316.751233,883.625758 328.975457,886.653262 332.614650,872.594533 330.446051,871.170287 338.651541,854.405330 344.781311,858.409566 347.733563,850.573216 342.901383,846.625192 352.592860,826.030796 358.739512,828.911488 359.624581,824.863670 350.483570,819.790031 349.394760,820.840558 347.518822,819.964926 316.751233,883.625758"/>
    <poly id="249943331" type="building.yes" color="255,230,230" fill="1" layer="-1.00" shape="359.624581,824.863670 350.483570,819.790031 342.194405,814.728269 356.135368,782.750838 358.970224,781.011288 361.563479,781.045935 372.228127,784.379773 368.103571,797.427663 364.834361,796.587179 362.766606,802.744301 366.256378,805.158276 364.162829,810.292997 360.134019,808.915676 357.673974,814.159729 362.774766,818.000907 360.279671,821.855827 359.624581,824.863670"/>
    <poly id="249943334" type="building.yes" color="255,230,230" fill="1" layer="-1.00" shape="342.194405,814.728269 310.335806,879.350759 310.528846,883.415854 312.969082,884.555233 316.751233,883.625758 347.518822,819.964926 349.394760,820.840558 350.483570,819.790031 342.194405,814.728269"/>
    <poly id="249943336" type="building.yes" color="255,230,230" fill="1" layer="-1.00" shape="382.331316,861.343011 387.667778,826.435753 363.862094,820.475499 363.441710,822.332047 360.279671,821.855827 359.624581,824.863670 358.739512,828.911488 353.733255,851.811832 353.044163,854.965097 382.331316,861.343011"/>
    <poly id="249943338" type="building.yes" color="255,230,230" fill="1" layer="-1.00" shape="361.993278,845.865419 366.774473,829.275874 371.810196,830.538832 369.367599,847.525291 361.993278,845.865419"/>
    <poly id="249943340" type="building.yes" color="255,230,230" fill="1" layer="-1.00" shape="353.478998,877.572462 356.854305,860.818219 364.913097,862.427453 361.537768,879.181690 353.478998,877.572462"/>
    <poly id="249944061" type="building.yes" color="255,230,230" fill="1" layer="-1.00" shape="308.982108,951.109778 340.101739,962.033819 342.689623,952.004873 344.032801,947.000278 345.533769,941.380094 346.298194,938.525170 347.358409,934.550769 348.405807,930.665652 349.679855,925.907446 350.451255,923.030107 344.498784,921.868147 341.707962,926.842554 325.576900,921.889769 320.110477,923.862562 312.971875,941.390153 308.982108,951.109778"/>
    <poly id="249944062" type="building.yes" color="255,230,230" fill="1" layer="-1.00" shape="366.305124,926.555458 370.654021,904.483476 331.409409,896.800112 331.035070,898.688861 328.650527,910.803264 331.445184,911.355458 329.861433,919.368563 340.986484,921.545340 342.263366,915.107922 345.701522,915.777324 344.498784,921.868147 350.451255,923.030107 351.613581,917.129348 355.763857,917.947588 354.520970,924.239583 366.305124,926.555458"/>
    <poly id="249944063" type="building.yes" color="255,230,230" fill="1" layer="-1.00" shape="354.661793,967.148605 360.487202,946.851932 366.305124,926.555458 354.520970,924.239583 353.988878,927.044163 349.679855,925.907446 348.405807,930.665652 353.883015,932.106492 352.843425,936.002531 347.358409,934.550769 346.298194,938.525170 350.341661,939.590744 349.584765,942.445477 345.533769,941.380094 344.032801,947.000278 349.123110,948.339675 348.489995,950.724240 345.516256,949.943035 344.821533,952.573798 342.689623,952.004873 340.101739,962.033819 347.279120,964.554878 354.661793,967.148605"/>
    <poly id="249944064" type="building.yes" color="255,230,230" fill="1" layer="-1.00" shape="331.035070,898.688861 311.100783,894.132343 304.970158,911.289776 326.745372,916.233491 328.650527,910.803264 331.035070,898.688861"/>
    <poly id="249944065" type="building.yes" color="255,230,230" fill="1" layer="-1.00" shape="289.267144,944.190337 308.982108,951.109778 312.971875,941.390153 298.247956,936.057201 300.358185,931.288994 296.023473,930.030644 289.267144,944.190337"/>
    <poly id="249944066" type="building.yes" color="255,230,230" fill="1" layer="-1.00" shape="311.100783,894.132343 303.705266,892.228439 274.775387,941.487054 287.649308,947.567221 289.267144,944.190337 296.023473,930.030644 304.970158,911.289776 311.100783,894.132343"/>
    <poly id="249944068" type="building.yes" color="255,230,230" fill="1" layer="-1.00" shape="320.851818,941.291336 322.961163,934.098972 326.999912,935.275850 324.890563,942.468213 320.851818,941.291336"/>
    <poly id="250074523" type="building.yes" color="255,230,230" fill="1" layer="-1.00" shape="423.251752,677.907454 415.515236,674.444061 414.437158,672.336190 415.188878,669.870804 417.502778,668.389068 421.163676,659.956648 422.612571,660.631793 422.877633,658.890369 421.421170,657.915172 421.063615,655.989290 422.036588,653.929769 424.270844,653.473095 426.438768,646.501708 437.103931,652.537847 433.190929,659.341957 434.281121,660.137352 429.031868,670.433521 427.902131,670.161769 425.008369,676.740019 423.251752,677.907454"/>
    <poly id="250074524" type="building.yes" color="255,230,230" fill="1" layer="-1.00" shape="448.966262,631.933384 459.521816,613.597041 445.049392,603.320019 435.962697,623.420805 448.966262,631.933384"/>
    <poly id="250074528" type="building.yes" color="255,230,230" fill="1" layer="-1.00" shape="426.438768,646.501708 435.962697,623.420805 448.966262,631.933384 444.143511,640.317241 445.073583,641.038835 440.298312,649.810704 438.887669,649.457073 437.103931,652.537847 426.438768,646.501708"/>
    <poly id="25432965" type="building.yes" color="255,230,230" fill="1" layer="-1.00" shape="373.929039,519.933747 385.345002,529.431459 414.607822,494.443393 424.966755,482.050098 408.516919,468.386904 445.710525,423.913705 439.845021,419.046437 456.993491,398.542251 442.229385,386.282070 424.634666,407.320198 408.007199,393.494676 386.484171,419.235732 379.556253,413.483471 375.624026,410.268873 368.460361,404.433611 328.303517,370.885495 302.105981,402.215934 299.381141,399.960602 279.146016,424.157232 281.847978,426.402012 257.186829,453.790730 297.163429,489.755973 310.866014,500.563607 316.352972,505.062218 294.549388,531.300020 320.164603,552.771432 317.087522,556.563211 271.534517,611.045191 268.106241,614.356581 249.228688,598.564458 242.138457,592.649658 239.817262,595.632866 207.726434,630.782271 234.748762,655.453726 247.896310,666.375302 252.716361,660.582327 257.009597,655.414265 288.496584,617.833951 302.321735,629.327908 340.471753,583.706671 329.179121,574.317136 332.503376,570.763767 344.044481,556.550141 347.185188,559.161961 355.078648,549.721971 362.174752,541.236201 358.603026,538.268285 373.929039,519.933747"/>
    <poly id="25432965#1" type="historic.castle" color="128,255,128" fill="1" layer="-1.00" shape="373.929039,519.933747 385.345002,529.431459 414.607822,494.443393 424.966755,482.050098 408.516919,468.386904 445.710525,423.913705 439.845021,419.046437 456.993491,398.542251 442.229385,386.282070 424.634666,407.320198 408.007199,393.494676 386.484171,419.235732 379.556253,413.483471 375.624026,410.268873 368.460361,404.433611 328.303517,370.885495 302.105981,402.215934 299.381141,399.960602 279.146016,424.157232 281.847978,426.402012 257.186829,453.790730 297.163429,489.755973 310.866014,500.563607 316.352972,505.062218 294.549388,531.300020 320.164603,552.771432 317.087522,556.563211 271.534517,611.045191 268.106241,614.356581 249.228688,598.564458 242.138457,592.649658 239.817262,595.632866 207.726434,630.782271 234.748762,655.453726 247.896310,666.375302 252.716361,660.582327 257.009597,655.414265 288.496584,617.833951 302.321735,629.327908 340.471753,583.706671 329.179121,574.317136 332.503376,570.763767 344.044481,556.550141 347.185188,559.161961 355.078648,549.721971 362.174752,541.236201 358.603026,538.268285 373.929039,519.933747"/>
    <poly id="25432965#2" type="tourism.attraction" color="207,245,201" fill="1" layer="-2.00" shape="373.929039,519.933747 385.345002,529.431459 414.607822,494.443393 424.966755,482.050098 408.516919,468.386904 445.710525,423.913705 439.845021,419.046437 456.993491,398.542251 442.229385,386.282070 424.634666,407.320198 408.007199,393.494676 386.484171,419.235732 379.556253,413.483471 375.624026,410.268873 368.460361,404.433611 328.303517,370.885495 302.105981,402.215934 299.381141,399.960602 279.146016,424.157232 281.847978,426.402012 257.186829,453.790730 297.163429,489.755973 310.866014,500.563607 316.352972,505.062218 294.549388,531.300020 320.164603,552.771432 317.087522,556.563211 271.534517,611.045191 268.106241,614.356581 249.228688,598.564458 242.138457,592.649658 239.817262,595.632866 207.726434,630.782271 234.748762,655.453726 247.896310,666.375302 252.716361,660.582327 257.009597,655.414265 288.496584,617.833951 302.321735,629.327908 340.471753,583.706671 329.179121,574.317136 332.503376,570.763767 344.044481,556.550141 347.185188,559.161961 355.078648,549.721971 362.174752,541.236201 358.603026,538.268285 373.929039,519.933747"/>
    <poly id="25698928" type="historic.yes" color="128,255,128" fill="0" layer="-1.00" shape="344.307893,728.260437 263.476619,701.121523"/>
    <poly id="293068529" type="building.hotel" color="255,230,230" fill="1" layer="-1.00" shape="372.228127,784.379773 379.578328,795.236611 385.873628,804.307491 388.435600,817.142200 387.893084,823.716759 387.667778,826.435753 363.862094,820.475499 362.774766,818.000907 372.228127,784.379773"/>
    <poly id="293068529#1" type="tourism.hotel" color="207,245,201" fill="1" layer="-2.00" shape="372.228127,784.379773 379.578328,795.236611 385.873628,804.307491 388.435600,817.142200 387.893084,823.716759 387.667778,826.435753 363.862094,820.475499 362.774766,818.000907 372.228127,784.379773"/>
    <poly id="293068530" type="leisure.park" color="207,245,201" fill="0" layer="-2.00" shape="432.821084,687.707580 403.371735,677.619349 420.479203,644.172225 460.464904,549.376856 472.020907,515.413809 454.801138,509.465021 455.992745,506.510387 464.829607,484.859131 486.456903,431.860354 487.965865,427.741238 485.682246,426.542231 483.398626,425.343225"/>
    <poly id="293068531" type="leisure.park" color="207,245,201" fill="0" layer="-2.00" shape="343.442507,745.929913 346.367945,737.326954 353.734914,739.287242 355.241046,734.167341 357.433089,726.961790 340.000634,720.629523 345.877619,704.457119 368.652073,713.134409 368.502488,727.516502 371.419076,732.002165 375.243266,733.929544 374.925466,735.372058 376.171074,738.743389 378.692990,741.326353 382.688109,742.860219 391.611678,748.273001 396.019870,751.842558 401.097889,756.273712"/>
    <poly id="293068535" type="landuse.residential" color="235,235,227" fill="0" layer="-3.00" shape="475.982901,799.299341 405.097351,772.619483 385.622561,767.172616"/>
    <poly id="293068537" type="landuse.residential" color="235,235,227" fill="0" layer="-3.00" shape="475.982901,799.299341 423.870089,1058.566949 393.879909,1305.634358 379.304117,1599.362446"/>
    <poly id="293068538" type="leisure.park" color="207,245,201" fill="0" layer="-2.00" shape="338.230979,765.176925 334.870375,777.438273 324.129382,774.962678 333.261777,742.961996 343.442507,745.929913"/>
    <poly id="33300727" type="landuse.residential" color="235,235,227" fill="1" layer="-3.00" shape="432.821084,687.707580 439.277187,671.776442 455.554914,639.784849 517.426189,537.499164 504.027069,532.432514 472.020907,515.413809 403.371735,677.619349 432.821084,687.707580"/>
    <poly id="347623528" type="historic.yes" color="128,255,128" fill="0" layer="-1.00" shape="342.821517,732.968397 261.801500,706.112276"/>
    <poly id="347623537" type="building.yes" color="255,230,230" fill="1" layer="-1.00" shape="340.722141,734.289070 343.266372,726.407418 347.399558,727.737615 345.288888,734.285029 344.862853,735.619075 340.722141,734.289070"/>
    <poly id="361815755" type="natural.water" color="181,209,209" fill="0" layer="-4.00" shape="2159.296183,-2612.039101 2162.129627,-2586.667315 2164.545357,-2528.103342 2166.130644,-2480.482912 2164.681016,-2454.214967 2164.370014,-2448.536073 2160.399447,-2268.550497 2158.750771,-2258.457047 2136.816468,-2124.093806 2096.430039,-1926.965811 2043.498405,-1765.664433 2005.678910,-1686.570788 1965.312238,-1605.667487 1866.144805,-1456.766001 1794.813083,-1358.352885 1664.395297,-1180.989466 1334.711927,-734.400546 1284.507532,-667.423227 1277.661311,-658.477943 1059.668794,-340.203382 911.943249,-131.772774 861.260416,-41.960903 849.661366,-40.446081 845.984837,-32.291596 857.831573,-34.446497 813.430120,38.639055 785.298830,90.932618 772.835539,102.722054 711.751476,213.002313 625.354135,378.331371 562.760772,538.547405 475.982901,799.299341"/>
    <poly id="375465274" type="man_made.pier" color="255,230,230" fill="0" layer="-1.00" shape="828.003209,836.204798 832.670528,819.829840 836.028806,808.035926"/>
    <poly id="396608521" type="leisure.garden" color="207,245,201" fill="1" layer="-2.00" shape="276.674652,640.317045 278.142430,640.246630 279.828661,640.470944 282.042500,641.593789 284.033806,643.155939 285.140853,644.618089 285.567315,646.286463 292.545218,637.903662 284.139200,631.210260 276.674652,640.317045"/>
    <poly id="402948831" type="landuse.grass" color="194,194,130" fill="1" layer="-3.00" shape="385.944529,780.831123 386.948350,786.866266 389.686507,792.346129 393.927696,796.765026 399.285826,799.754614 405.294208,801.037546 411.407239,800.494145 417.091052,798.171237 421.838858,794.292885 425.221698,789.181270 426.950095,783.310736 426.863441,777.185736 424.976023,771.373036 421.443263,766.358003 416.593521,762.610523 410.849426,760.453543 404.720897,760.085484 398.751031,761.526008 393.479556,764.661420 389.366684,769.213224 386.778601,774.760735 385.944529,780.831123"/>
    <poly id="402948832" type="landuse.flowerbed" color="194,194,130" fill="1" layer="-3.00" shape="413.263648,794.620376 414.775395,796.294744 418.386141,793.646043 422.043404,790.451285 423.984256,786.132208 424.768462,782.565111 425.081044,779.421353 423.233341,779.067631 421.910960,784.004956 418.956298,786.970710 418.204743,790.637066 413.263648,794.620376"/>
    <poly id="402948832#1" type="leisure.garden" color="207,245,201" fill="1" layer="-2.00" shape="413.263648,794.620376 414.775395,796.294744 418.386141,793.646043 422.043404,790.451285 423.984256,786.132208 424.768462,782.565111 425.081044,779.421353 423.233341,779.067631 421.910960,784.004956 418.956298,786.970710 418.204743,790.637066 413.263648,794.620376"/>
    <poly id="402948833" type="landuse.flowerbed" color="194,194,130" fill="1" layer="-3.00" shape="411.453940,763.207204 406.981797,763.375610 402.151557,763.986736 398.114846,766.479390 395.457753,768.992845 393.431320,771.412551 394.761170,772.746778 398.633197,769.402026 402.750171,768.597607 405.434870,765.983378 411.766624,765.445582 411.453940,763.207204"/>
    <poly id="402948833#1" type="leisure.garden" color="207,245,201" fill="1" layer="-2.00" shape="411.453940,763.207204 406.981797,763.375610 402.151557,763.986736 398.114846,766.479390 395.457753,768.992845 393.431320,771.412551 394.761170,772.746778 398.633197,769.402026 402.750171,768.597607 405.434870,765.983378 411.766624,765.445582 411.453940,763.207204"/>
    <poly id="402948834" type="landuse.flowerbed" color="194,194,130" fill="1" layer="-3.00" shape="389.663323,783.361656 391.461852,787.441849 393.807389,791.697285 397.609054,794.525975 400.926046,796.065839 403.935304,797.057461 404.690438,795.325914 400.139622,792.972043 397.880373,789.448355 394.458220,787.922266 391.632176,782.244455 389.663323,783.361656"/>
    <poly id="402948834#1" type="leisure.garden" color="207,245,201" fill="1" layer="-2.00" shape="389.663323,783.361656 391.461852,787.441849 393.807389,791.697285 397.609054,794.525975 400.926046,796.065839 403.935304,797.057461 404.690438,795.325914 400.139622,792.972043 397.880373,789.448355 394.458220,787.922266 391.632176,782.244455 389.663323,783.361656"/>
    <poly id="402948835" type="leisure.garden" color="207,245,201" fill="1" layer="-2.00" shape="402.533172,773.140090 400.523089,774.714251 399.099115,776.818514 398.407388,779.271270 398.516773,781.815018 399.539113,784.402458 401.378110,786.502251 403.823412,787.841703 406.577378,788.272640 409.322580,787.758590 411.720676,786.330326 413.497777,784.183798 414.433834,781.558080 414.424007,778.778298 413.579655,776.375409 412.029088,774.357297 409.927976,772.920199 407.483305,772.203455 404.930506,772.278968 402.533172,773.140090"/>
    <poly id="418982877" type="leisure.park" color="207,245,201" fill="1" layer="-2.00" shape="468.189732,737.690236 463.693983,743.797334 458.104674,748.675437 452.381880,752.144657 444.406833,754.458586 436.890176,755.226391 448.162760,697.795843 476.754487,705.559569 470.949311,730.870748 468.189732,737.690236"/>
    <poly id="431070102" type="building.yes" color="255,230,230" fill="1" layer="-1.00" shape="372.345621,720.636264 375.556381,722.145435 381.495295,709.618908 378.284529,708.109734 372.345621,720.636264"/>
    <poly id="459401493" type="waterway.river" color="181,209,209" fill="0" layer="-4.00" shape="654.292448,840.054067 728.963715,583.079242 754.234114,527.432233"/>
    <poly id="466393860" type="waterway.river" color="181,209,209" fill="0" layer="-4.00" shape="586.770312,1072.430365 654.292448,840.054067"/>
    <poly id="516818987" type="leisure.park" color="207,245,201" fill="1" layer="-2.00" shape="457.287882,665.773338 478.882559,623.172609 499.039245,590.182638 523.938346,544.707668 529.002776,546.503812 484.443571,674.262765 457.287882,665.773338"/>
    <poly id="592850908" type="leisure.park" color="207,245,201" fill="0" layer="-2.00" shape="483.398626,425.343225 479.749190,423.478085 477.793278,426.907904 476.662345,426.291448 474.798287,425.293151 454.395441,464.082960 440.103004,501.006271 445.089976,503.015580 443.381358,507.284307 434.259082,532.256593 429.621158,547.374586 418.787385,565.139751 408.800931,579.147208 394.233245,598.263178 383.456117,605.718640 369.428228,608.885929 361.159101,605.525002 349.616286,593.684195 337.798345,604.390841 340.036101,607.058802 293.031426,663.434322 281.710912,676.819609 282.449911,677.434800 278.926139,681.738288 281.003083,683.409475 273.753938,701.940700 272.260508,705.770369 269.686751,713.374797 268.575975,716.838962 266.075297,724.352587 262.343402,735.633664 248.928228,776.182800 246.884020,782.372734 244.666245,782.584419 242.494244,790.278800 234.571489,817.934491 247.354188,820.091479 241.360613,839.091462 232.065605,857.763385 227.832703,855.168095 209.735143,885.149158 202.943511,892.237439 168.157930,902.079068 146.105924,901.101699"/>
    <poly id="67153267" type="amenity.parking" color="184,184,179" fill="1" layer="-1.00" shape="476.754487,705.559569 485.624392,677.457829 449.676986,665.498206 447.541410,672.557730 442.893818,689.977828 441.295645,695.934032 448.162760,697.795843 476.754487,705.559569"/>
    <poi id="1152551464" type="shop.art" color="237,199,255" layer="4.00" x="322.45" y="858.71"/>
    <poi id="2330689123" type="amenity.cafe" color="237,199,199" layer="4.00" x="341.00" y="910.35"/>
    <poi id="2425634447" type="amenity.drinking_water" color="237,199,199" layer="4.00" x="456.03" y="722.43"/>
    <poi id="2504326659" type="amenity.pub" color="237,199,199" layer="4.00" x="385.38" y="847.89"/>
    <poi id="2696763046" type="tourism.museum" color="207,245,201" layer="3.00" x="372.43" y="891.69"/>
    <poi id="2743702843" type="amenity.bicycle_rental" color="237,199,199" layer="4.00" x="459.50" y="699.72"/>
    <poi id="280179038" type="amenity.toilets" color="237,199,199" layer="4.00" x="345.47" y="722.80"/>
    <poi id="3325705264" type="amenity.drinking_water" color="237,199,199" layer="4.00" x="377.20" y="731.75"/>
    <poi id="3336592615" type="amenity.bicycle_parking" color="237,199,199" layer="4.00" x="454.26" y="670.73"/>
    <poi id="3336592616" type="amenity.bicycle_parking" color="237,199,199" layer="4.00" x="433.45" y="711.36"/>
    <poi id="3352546172" type="natural.spring" color="140,196,107" layer="1.00" x="306.49" y="765.03"/>
    <poi id="3631948426" type="amenity.bicycle_parking" color="237,199,199" layer="4.00" x="477.36" y="712.55"/>
    <poi id="3631948427" type="amenity.bicycle_parking" color="237,199,199" layer="4.00" x="381.85" y="764.33"/>
    <poi id="3841160858" type="amenity.cafe" color="237,199,199" layer="4.00" x="376.20" y="717.01"/>
    <poi id="4009332690" type="amenity.cafe" color="237,199,199" layer="4.00" x="433.65" y="654.34"/>