<?xml version="1.0" encoding="UTF-8"?>

<!-- generated on Sun Aug 30 15:46:01 2020 by Eclipse SUMO duarouter Version 1.6.0
<configuration xmlns:xsi="http://www.w3.org/2001/XMLSchema-instance" xsi:noNamespaceSchemaLocation="http://sumo.dlr.de/xsd/duarouterConfiguration.xsd">

    <input>
        <net-file value="/home/simon5521/Sumo/2020-08-30-15-45-58/osm.net.xml"/>
        <route-files value="/home/simon5521/Sumo/2020-08-30-15-45-58/osm.passenger.trips.xml"/>
    </input>

    <output>
        <output-file value="/home/simon5521/Sumo/2020-08-30-15-45-58/osm.passenger.trips.xml.tmp"/>
        <write-trips value="true"/>
    </output>

    <time>
        <begin value="0"/>
        <end value="3600.0"/>
    </time>

    <report>
        <no-warnings value="true"/>
        <ignore-errors value="true"/>
        <no-step-log value="true"/>
    </report>

</configuration>
-->

<routes xmlns:xsi="http://www.w3.org/2001/XMLSchema-instance" xsi:noNamespaceSchemaLocation="http://sumo.dlr.de/xsd/routes_file.xsd">
    <vType id="veh_passenger" vClass="passenger"/>
    <trip id="veh4" type="veh_passenger" depart="8.32" departLane="best" departSpeed="max" from="341528499#0" to="-195071786"/>
    <trip id="veh6" type="veh_passenger" depart="12.48" departLane="best" from="504637556" to="156974364"/>
    <trip id="veh7" type="veh_passenger" depart="14.57" departLane="best" departSpeed="max" from="-156974362" to="-341528499#0"/>
    <trip id="veh9" type="veh_passenger" depart="18.73" departLane="best" departSpeed="max" from="-25440373#2" to="23897559"/>
    <trip id="veh13" type="veh_passenger" depart="27.05" departLane="best" departSpeed="max" from="-172699280" to="125067645"/>
    <trip id="veh14" type="veh_passenger" depart="29.13" departLane="best" from="172699279" to="156974364"/>
    <trip id="veh15" type="veh_passenger" depart="31.21" departLane="best" departSpeed="max" from="195071786" to="25440373#2"/>
    <trip id="veh17" type="veh_passenger" depart="35.37" departLane="best" departSpeed="max" from="-172699280" to="156974368#0"/>
    <trip id="veh18" type="veh_passenger" depart="37.45" departLane="best" from="8031412" to="25440373#2"/>
    <trip id="veh23" type="veh_passenger" depart="47.86" departLane="best" departSpeed="max" from="-464432625" to="-464432627"/>
    <trip id="veh24" type="veh_passenger" depart="49.94" departLane="best" departSpeed="max" from="-156974362" to="-195071786"/>
    <trip id="veh25" type="veh_passenger" depart="52.02" departLane="best" departSpeed="max" from="-172699280" to="25440373#2"/>
    <trip id="veh26" type="veh_passenger" depart="54.10" departLane="best" departSpeed="max" from="341528499#0" to="172699280"/>
    <trip id="veh27" type="veh_passenger" depart="56.18" departLane="best" departSpeed="max" from="-156974362" to="156974368#0"/>
    <trip id="veh28" type="veh_passenger" depart="58.26" departLane="best" from="519640239" to="466393862#2"/>
    <trip id="veh32" type="veh_passenger" depart="66.59" departLane="best" departSpeed="max" from="341528499#0" to="23897559"/>
    <trip id="veh33" type="veh_passenger" depart="68.67" departLane="best" departSpeed="max" from="341528499#0" to="23897559"/>
    <trip id="veh34" type="veh_passenger" depart="70.75" departLane="best" departSpeed="max" from="-156974362" to="572309213"/>
    <trip id="veh36" type="veh_passenger" depart="74.91" departLane="best" departSpeed="max" from="-25440373#2" to="-195071786"/>
    <trip id="veh38" type="veh_passenger" depart="79.07" departLane="best" departSpeed="max" from="-156974362" to="172699280"/>
    <trip id="veh40" type="veh_passenger" depart="83.23" departLane="best" departSpeed="max" from="-464432625" to="-464432627"/>
    <trip id="veh44" type="veh_passenger" depart="91.56" departLane="best" departSpeed="max" from="-156974362" to="25440373#2"/>
    <trip id="veh51" type="veh_passenger" depart="106.12" departLane="best" from="620937260#1" to="-341528499#0"/>
    <trip id="veh55" type="veh_passenger" depart="114.44" departLane="best" from="8034419#1" to="466393862#2"/>
    <trip id="veh56" type="veh_passenger" depart="116.53" departLane="best" departSpeed="max" from="-464432625" to="-464432627"/>
    <trip id="veh58" type="veh_passenger" depart="120.69" departLane="best" departSpeed="max" from="-172699280" to="156974364"/>
    <trip id="veh59" type="veh_passenger" depart="122.77" departLane="best" departSpeed="max" from="-156974362" to="25440373#1"/>
    <trip id="veh60" type="veh_passenger" depart="124.85" departLane="best" departSpeed="max" from="-572309213" to="466393862#2"/>
    <trip id="veh61" type="veh_passenger" depart="126.93" departLane="best" departSpeed="max" from="-172699280" to="572309213"/>
    <trip id="veh64" type="veh_passenger" depart="133.17" departLane="best" departSpeed="max" from="195071786" to="156974364"/>
    <trip id="veh66" type="veh_passenger" depart="137.33" departLane="best" departSpeed="max" from="-156974362" to="172699280"/>
    <trip id="veh70" type="veh_passenger" depart="145.66" departLane="best" departSpeed="max" from="341528499#0" to="156974364"/>
    <trip id="veh71" type="veh_passenger" depart="147.74" departLane="best" departSpeed="max" from="-172699280" to="-341528499#0"/>
    <trip id="veh72" type="veh_passenger" depart="149.82" departLane="best" departSpeed="max" from="-172699280" to="23897559"/>
    <trip id="veh78" type="veh_passenger" depart="162.30" departLane="best" departSpeed="max" from="341528499#0" to="23897559"/>
    <trip id="veh79" type="veh_passenger" depart="164.38" departLane="best" departSpeed="max" from="-156974362" to="516397654"/>
    <trip id="veh81" type="veh_passenger" depart="168.55" departLane="best" departSpeed="max" from="-172699280" to="-341528499#0"/>
    <trip id="veh82" type="veh_passenger" depart="170.63" departLane="best" departSpeed="max" from="-25440373#2" to="572309213"/>
    <trip id="veh83" type="veh_passenger" depart="172.71" departLane="best" departSpeed="max" from="341528499#0" to="466393862#2"/>
    <trip id="veh86" type="veh_passenger" depart="178.95" departLane="best" departSpeed="max" from="-172699280" to="572309213"/>
    <trip id="veh89" type="veh_passenger" depart="185.19" departLane="best" departSpeed="max" from="-25440373#2" to="572309213"/>
    <trip id="veh90" type="veh_passenger" depart="187.27" departLane="best" departSpeed="max" from="341528499#0" to="466393862#2"/>
    <trip id="veh94" type="veh_passenger" depart="195.60" departLane="best" departSpeed="max" from="-25440373#2" to="466393862#2"/>
    <trip id="veh96" type="veh_passenger" depart="199.76" departLane="best" departSpeed="max" from="195071786" to="156974364"/>
    <trip id="veh97" type="veh_passenger" depart="201.84" departLane="best" departSpeed="max" from="-156974362" to="572309213"/>
    <trip id="veh98" type="veh_passenger" depart="203.92" departLane="best" departSpeed="max" from="-25440373#2" to="-195071786"/>
    <trip id="veh99" type="veh_passenger" depart="206.00" departLane="best" departSpeed="max" from="195071786" to="156974364"/>
    <trip id="veh100" type="veh_passenger" depart="208.08" departLane="best" departSpeed="max" from="-25440373#2" to="466393862#2"/>
    <trip id="veh101" type="veh_passenger" depart="210.16" departLane="best" departSpeed="max" from="195071786" to="156974364"/>
    <trip id="veh104" type="veh_passenger" depart="216.40" departLane="best" departSpeed="max" from="-25440373#2" to="23897559"/>
    <trip id="veh105" type="veh_passenger" depart="218.49" departLane="best" departSpeed="max" from="195071786" to="172699280"/>
    <trip id="veh106" type="veh_passenger" depart="220.57" departLane="best" departSpeed="max" from="-464432625" to="-464432627"/>
    <trip id="veh107" type="veh_passenger" depart="222.65" departLane="best" departSpeed="max" from="-156974362" to="23897559"/>
    <trip id="veh108" type="veh_passenger" depart="224.73" departLane="best" from="172699279" to="156974364"/>
    <trip id="veh116" type="veh_passenger" depart="241.37" departLane="best" departSpeed="max" from="-172699280" to="572309213"/>
    <trip id="veh118" type="veh_passenger" depart="245.54" departLane="best" departSpeed="max" from="341528499#0" to="23897559"/>
    <trip id="veh119" type="veh_passenger" depart="247.62" departLane="best" departSpeed="max" from="464432627" to="464432625"/>
    <trip id="veh120" type="veh_passenger" depart="249.70" departLane="best" departSpeed="max" from="-464432625" to="-464432627"/>
    <trip id="veh122" type="veh_passenger" depart="253.86" departLane="best" departSpeed="max" from="341528499#0" to="23897559"/>
    <trip id="veh124" type="veh_passenger" depart="258.02" departLane="best" departSpeed="max" from="-572309213" to="-341528499#0"/>
    <trip id="veh125" type="veh_passenger" depart="260.10" departLane="best" departSpeed="max" from="-464432625" to="-464432627"/>
    <trip id="veh126" type="veh_passenger" depart="262.18" departLane="best" departSpeed="max" from="464432627" to="464432625"/>
    <trip id="veh127" type="veh_passenger" depart="264.26" departLane="best" departSpeed="max" from="-25440373#2" to="-195071786"/>
    <trip id="veh130" type="veh_passenger" depart="270.51" departLane="best" departSpeed="max" from="-572309213" to="25440373#2"/>
    <trip id="veh134" type="veh_passenger" depart="278.83" departLane="best" departSpeed="max" from="-156974362" to="25440373#2"/>
    <trip id="veh135" type="veh_passenger" depart="280.91" departLane="best" departSpeed="max" from="-156974362" to="156974367#1"/>
    <trip id="veh137" type="veh_passenger" depart="285.07" departLane="best" departSpeed="max" from="341528499#0" to="466393862#2"/>
    <trip id="veh138" type="veh_passenger" depart="287.15" departLane="best" departSpeed="max" from="-156974362" to="23897559"/>
    <trip id="veh139" type="veh_passenger" depart="289.23" departLane="best" from="8034419#1" to="156974364"/>
    <trip id="veh141" type="veh_passenger" depart="293.39" departLane="best" departSpeed="max" from="-156974362" to="-341528499#0"/>
    <trip id="veh142" type="veh_passenger" depart="295.48" departLane="best" departSpeed="max" from="-172699280" to="25440373#2"/>
    <trip id="veh144" type="veh_passenger" depart="299.64" departLane="best" departSpeed="max" from="-172699280" to="25440373#2"/>
    <trip id="veh145" type="veh_passenger" depart="301.72" departLane="best" departSpeed="max" from="341528499#0" to="572309213"/>
    <trip id="veh146" type="veh_passenger" depart="303.80" departLane="best" departSpeed="max" from="-172699280" to="-195071786"/>
    <trip id="veh147" type="veh_passenger" depart="305.88" departLane="best" departSpeed="max" from="195071786" to="25440373#2"/>
    <trip id="veh149" type="veh_passenger" depart="310.04" departLane="best" departSpeed="max" from="-172699280" to="620937260#1"/>
    <trip id="veh150" type="veh_passenger" depart="312.12" departLane="best" departSpeed="max" from="341528499#0" to="156974364"/>
    <trip id="veh151" type="veh_passenger" depart="314.20" departLane="best" departSpeed="max" from="-572309213" to="156974364"/>
    <trip id="veh153" type="veh_passenger" depart="318.36" departLane="best" departSpeed="max" from="-172699280" to="572309213"/>
    <trip id="veh154" type="veh_passenger" depart="320.45" departLane="best" from="172699279" to="466393862#2"/>
    <trip id="veh155" type="veh_passenger" depart="322.53" departLane="best" departSpeed="max" from="195071786" to="172699280"/>
    <trip id="veh156" type="veh_passenger" depart="324.61" departLane="best" departSpeed="max" from="-572309213" to="172699280"/>
    <trip id="veh158" type="veh_passenger" depart="328.77" departLane="best" departSpeed="max" from="-25440373#2" to="-195071786"/>
    <trip id="veh159" type="veh_passenger" depart="330.85" departLane="best" departSpeed="max" from="464432627" to="-346284006"/>
    <trip id="veh160" type="veh_passenger" depart="332.93" departLane="best" departSpeed="max" from="-156974362" to="572309213"/>
    <trip id="veh162" type="veh_passenger" depart="337.09" departLane="best" departSpeed="max" from="195071786" to="25440373#2"/>
    <trip id="veh163" type="veh_passenger" depart="339.17" departLane="best" departSpeed="max" from="-572309213" to="466393862#2"/>
    <trip id="veh165" type="veh_passenger" depart="343.33" departLane="best" departSpeed="max" from="195071786" to="156974364"/>
    <trip id="veh166" type="veh_passenger" depart="345.42" departLane="best" from="-8031412" to="172699280"/>
    <trip id="veh167" type="veh_passenger" depart="347.50" departLane="best" departSpeed="max" from="-572309213" to="172699280"/>
    <trip id="veh168" type="veh_passenger" depart="349.58" departLane="best" departSpeed="max" from="341528499#0" to="156974364"/>
    <trip id="veh175" type="veh_passenger" depart="364.14" departLane="best" departSpeed="max" from="-172699280" to="-195071786"/>
    <trip id="veh176" type="veh_passenger" depart="366.22" departLane="best" departSpeed="max" from="195071786" to="-341528499#0"/>
    <trip id="veh180" type="veh_passenger" depart="374.55" departLane="best" departSpeed="max" from="-172699280" to="-195071786"/>
    <trip id="veh182" type="veh_passenger" depart="378.71" departLane="best" departSpeed="max" from="-156974362" to="25440373#2"/>
    <trip id="veh183" type="veh_passenger" depart="380.79" departLane="best" departSpeed="max" from="-156974362" to="-341528499#0"/>
    <trip id="veh184" type="veh_passenger" depart="382.87" departLane="best" departSpeed="max" from="-572309213" to="156974364"/>
    <trip id="veh185" type="veh_passenger" depart="384.95" departLane="best" departSpeed="max" from="-572309213" to="172699280"/>
    <trip id="veh187" type="veh_passenger" depart="389.11" departLane="best" from="8031412" to="156974364"/>
    <trip id="veh189" type="veh_passenger" depart="393.27" departLane="best" departSpeed="max" from="195071786" to="-341528499#0"/>
    <trip id="veh190" type="veh_passenger" depart="395.35" departLane="best" departSpeed="max" from="-172699280" to="-195071786"/>
    <trip id="veh191" type="veh_passenger" depart="397.44" departLane="best" departSpeed="max" from="-156974362" to="172699280"/>
    <trip id="veh192" type="veh_passenger" depart="399.52" departLane="best" from="156974365" to="156974364"/>
    <trip id="veh193" type="veh_passenger" depart="401.60" departLane="best" departSpeed="max" from="195071786" to="172699280"/>
    <trip id="veh194" type="veh_passenger" depart="403.68" departLane="best" departSpeed="max" from="341528499#0" to="-195071786"/>
    <trip id="veh195" type="veh_passenger" depart="405.76" departLane="best" departSpeed="max" from="-172699280" to="156974364"/>
    <trip id="veh196" type="veh_passenger" depart="407.84" departLane="best" departSpeed="max" from="341528499#0" to="23897559"/>
    <trip id="veh198" type="veh_passenger" depart="412.00" departLane="best" departSpeed="max" from="-156974362" to="172699280"/>
    <trip id="veh199" type="veh_passenger" depart="414.08" departLane="best" departSpeed="max" from="-156974362" to="572309213"/>
    <trip id="veh203" type="veh_passenger" depart="422.41" departLane="best" departSpeed="max" from="464432627" to="-346284006"/>
    <trip id="veh204" type="veh_passenger" depart="424.49" departLane="best" departSpeed="max" from="-572309213" to="-341528499#0"/>
    <trip id="veh205" type="veh_passenger" depart="426.57" departLane="best" departSpeed="max" from="-25440373#2" to="156974364"/>
    <trip id="veh206" type="veh_passenger" depart="428.65" departLane="best" departSpeed="max" from="195071786" to="466393862#2"/>
    <trip id="veh208" type="veh_passenger" depart="432.81" departLane="best" departSpeed="max" from="-25440373#2" to="572309213"/>
    <trip id="veh209" type="veh_passenger" depart="434.89" departLane="best" departSpeed="max" from="341528499#0" to="23897559"/>
    <trip id="veh211" type="veh_passenger" depart="439.05" departLane="best" departSpeed="max" from="-25440373#2" to="572309213"/>
    <trip id="veh212" type="veh_passenger" depart="441.13" departLane="best" from="8031412" to="25440373#2"/>
    <trip id="veh213" type="veh_passenger" depart="443.21" departLane="best" departSpeed="max" from="-572309213" to="172699280"/>
    <trip id="veh214" type="veh_passenger" depart="445.29" departLane="best" departSpeed="max" from="-172699280" to="156974364"/>
    <trip id="veh215" type="veh_passenger" depart="447.38" departLane="best" departSpeed="max" from="-172699280" to="572309213"/>
    <trip id="veh217" type="veh_passenger" depart="451.54" departLane="best" departSpeed="max" from="-172699280" to="23897559"/>
    <trip id="veh218" type="veh_passenger" depart="453.62" departLane="best" departSpeed="max" from="-572309213" to="-341528499#0"/>
    <trip id="veh220" type="veh_passenger" depart="457.78" departLane="best" departSpeed="max" from="341528499#0" to="23897559"/>
    <trip id="veh224" type="veh_passenger" depart="466.10" departLane="best" departSpeed="max" from="-572309213" to="466393862#2"/>
    <trip id="veh226" type="veh_passenger" depart="470.26" departLane="best" departSpeed="max" from="-572309213" to="-341528499#0"/>
    <trip id="veh227" type="veh_passenger" depart="472.34" departLane="best" departSpeed="max" from="-572309213" to="156974364"/>
    <trip id="veh231" type="veh_passenger" depart="480.67" departLane="best" departSpeed="max" from="341528499#0" to="-195071786"/>
    <trip id="veh233" type="veh_passenger" depart="484.83" departLane="best" departSpeed="max" from="195071786" to="466393862#2"/>
    <trip id="veh234" type="veh_passenger" depart="486.91" departLane="best" from="519640249" to="172699280"/>
    <trip id="veh235" type="veh_passenger" depart="488.99" departLane="best" departSpeed="max" from="-156974362" to="23897559"/>
    <trip id="veh236" type="veh_passenger" depart="491.07" departLane="best" from="156974365" to="466393862#2"/>
    <trip id="veh238" type="veh_passenger" depart="495.23" departLane="best" departSpeed="max" from="-572309213" to="172699280"/>
    <trip id="veh239" type="veh_passenger" depart="497.31" departLane="best" departSpeed="max" from="195071786" to="172699280"/>
    <trip id="veh240" type="veh_passenger" depart="499.40" departLane="best" departSpeed="max" from="195071786" to="-341528499#0"/>
    <trip id="veh242" type="veh_passenger" depart="503.56" departLane="best" departSpeed="max" from="195071786" to="466393862#2"/>
    <trip id="veh244" type="veh_passenger" depart="507.72" departLane="best" departSpeed="max" from="-25440373#2" to="156974364"/>
    <trip id="veh246" type="veh_passenger" depart="511.88" departLane="best" departSpeed="max" from="-156974362" to="25440373#2"/>
    <trip id="veh248" type="veh_passenger" depart="516.04" departLane="best" departSpeed="max" from="341528499#0" to="172699280"/>
    <trip id="veh249" type="veh_passenger" depart="518.12" departLane="best" departSpeed="max" from="-172699280" to="25440373#2"/>
    <trip id="veh251" type="veh_passenger" depart="522.28" departLane="best" departSpeed="max" from="-156974362" to="466393862#2"/>
    <trip id="veh252" type="veh_passenger" depart="524.37" departLane="best" departSpeed="max" from="-172699280" to="23897559"/>
    <trip id="veh253" type="veh_passenger" depart="526.45" departLane="best" departSpeed="max" from="-572309213" to="466393862#2"/>
    <trip id="veh254" type="veh_passenger" depart="528.53" departLane="best" departSpeed="max" from="-172699280" to="-195071786"/>
    <trip id="veh256" type="veh_passenger" depart="532.69" departLane="best" departSpeed="max" from="-156974362" to="466393862#2"/>
    <trip id="veh258" type="veh_passenger" depart="536.85" departLane="best" departSpeed="max" from="195071786" to="172699280"/>
    <trip id="veh259" type="veh_passenger" depart="538.93" departLane="best" departSpeed="max" from="-464432625" to="-464432627"/>
    <trip id="veh260" type="veh_passenger" depart="541.01" departLane="best" from="8034419#0" to="156974364"/>
    <trip id="veh261" type="veh_passenger" depart="543.09" departLane="best" departSpeed="max" from="-156974362" to="25440373#2"/>
    <trip id="veh262" type="veh_passenger" depart="545.17" departLane="best" from="-25440373#1" to="466393862#2"/>
    <trip id="veh263" type="veh_passenger" depart="547.25" departLane="best" from="156974368#0" to="156974364"/>
    <trip id="veh264" type="veh_passenger" depart="549.33" departLane="best" departSpeed="max" from="195071786" to="466393862#2"/>
    <trip id="veh265" type="veh_passenger" depart="551.42" departLane="best" departSpeed="max" from="195071786" to="156974364"/>
    <trip id="veh267" type="veh_passenger" depart="555.58" departLane="best" departSpeed="max" from="-172699280" to="-341528499#0"/>
    <trip id="veh268" type="veh_passenger" depart="557.66" departLane="best" departSpeed="max" from="341528499#0" to="172699280"/>
    <trip id="veh270" type="veh_passenger" depart="561.82" departLane="best" from="516397654" to="466393862#2"/>
    <trip id="veh271" type="veh_passenger" depart="563.90" departLane="best" from="519640239" to="466393862#2"/>
    <trip id="veh272" type="veh_passenger" depart="565.98" departLane="best" departSpeed="max" from="-25440373#2" to="466393862#2"/>
    <trip id="veh273" type="veh_passenger" depart="568.06" departLane="best" departSpeed="max" from="-156974362" to="23897559"/>
    <trip id="veh274" type="veh_passenger" depart="570.14" departLane="best" departSpeed="max" from="341528499#0" to="572309213"/>
    <trip id="veh276" type="veh_passenger" depart="574.30" departLane="best" departSpeed="max" from="-156974362" to="519640239"/>
    <trip id="veh277" type="veh_passenger" depart="576.39" departLane="best" departSpeed="max" from="341528499#0" to="572309213"/>
    <trip id="veh278" type="veh_passenger" depart="578.47" departLane="best" departSpeed="max" from="-172699280" to="572309213"/>
    <trip id="veh279" type="veh_passenger" depart="580.55" departLane="best" departSpeed="max" from="-25440373#2" to="172699280"/>
    <trip id="veh280" type="veh_passenger" depart="582.63" departLane="best" departSpeed="max" from="-172699280" to="519640239"/>
    <trip id="veh283" type="veh_passenger" depart="588.87" departLane="best" departSpeed="max" from="-25440373#2" to="172699280"/>
    <trip id="veh284" type="veh_passenger" depart="590.95" departLane="best" from="466393862#1" to="466393862#2"/>
    <trip id="veh285" type="veh_passenger" depart="593.03" departLane="best" departSpeed="max" from="-172699280" to="431070345"/>
    <trip id="veh287" type="veh_passenger" depart="597.19" departLane="best" from="431070345" to="172699280"/>
    <trip id="veh288" type="veh_passenger" depart="599.27" departLane="best" departSpeed="max" from="195071786" to="25440373#2"/>
    <trip id="veh289" type="veh_passenger" depart="601.36" departLane="best" departSpeed="max" from="-172699280" to="23897559"/>
    <trip id="veh293" type="veh_passenger" depart="609.68" departLane="best" departSpeed="max" from="-172699280" to="572309213"/>
    <trip id="veh294" type="veh_passenger" depart="611.76" departLane="best" departSpeed="max" from="-156974362" to="466393862#2"/>
    <trip id="veh295" type="veh_passenger" depart="613.84" departLane="best" departSpeed="max" from="-172699280" to="-341528499#0"/>
    <trip id="veh297" type="veh_passenger" depart="618.00" departLane="best" departSpeed="max" from="-156974362" to="466393862#2"/>
    <trip id="veh299" type="veh_passenger" depart="622.16" departLane="best" departSpeed="max" from="-172699280" to="-195071786"/>
    <trip id="veh300" type="veh_passenger" depart="624.24" departLane="best" departSpeed="max" from="341528499#0" to="23897559"/>
    <trip id="veh301" type="veh_passenger" depart="626.33" departLane="best" departSpeed="max" from="341528499#0" to="172699280"/>
    <trip id="veh302" type="veh_passenger" depart="628.41" departLane="best" departSpeed="max" from="341528499#0" to="23897559"/>
    <trip id="veh303" type="veh_passenger" depart="630.49" departLane="best" departSpeed="max" from="-172699280" to="23897559"/>
    <trip id="veh304" type="veh_passenger" depart="632.57" departLane="best" departSpeed="max" from="341528499#0" to="466393862#2"/>
    <trip id="veh305" type="veh_passenger" depart="634.65" departLane="best" departSpeed="max" from="-572309213" to="172699280"/>
    <trip id="veh306" type="veh_passenger" depart="636.73" departLane="best" departSpeed="max" from="195071786" to="172699280"/>
    <trip id="veh308" type="veh_passenger" depart="640.89" departLane="best" departSpeed="max" from="-156974362" to="25440373#2"/>
    <trip id="veh309" type="veh_passenger" depart="642.97" departLane="best" departSpeed="max" from="-156974362" to="-8031412"/>
    <trip id="veh310" type="veh_passenger" depart="645.05" departLane="best" departSpeed="max" from="-572309213" to="172699280"/>
    <trip id="veh311" type="veh_passenger" depart="647.13" departLane="best" departSpeed="max" from="195071786" to="466393862#2"/>
    <trip id="veh313" type="veh_passenger" depart="651.29" departLane="best" departSpeed="max" from="-464432625" to="-464432627"/>
    <trip id="veh314" type="veh_passenger" depart="653.38" departLane="best" departSpeed="max" from="-25440373#2" to="172699280"/>
    <trip id="veh319" type="veh_passenger" depart="663.78" departLane="best" departSpeed="max" from="341528499#0" to="23897559"/>
    <trip id="veh320" type="veh_passenger" depart="665.86" departLane="best" departSpeed="max" from="341528499#0" to="466393862#2"/>
    <trip id="veh321" type="veh_passenger" depart="667.94" departLane="best" from="156974367#1" to="156974364"/>
    <trip id="veh324" type="veh_passenger" depart="674.18" departLane="best" departSpeed="max" from="-172699280" to="466393862#2"/>
    <trip id="veh326" type="veh_passenger" depart="678.35" departLane="best" departSpeed="max" from="-572309213" to="466393862#2"/>
    <trip id="veh328" type="veh_passenger" depart="682.51" departLane="best" departSpeed="max" from="195071786" to="156974364"/>
    <trip id="veh329" type="veh_passenger" depart="684.59" departLane="best" departSpeed="max" from="-25440373#2" to="-195071786"/>
    <trip id="veh334" type="veh_passenger" depart="694.99" departLane="best" departSpeed="max" from="341528499#0" to="23897559"/>
    <trip id="veh335" type="veh_passenger" depart="697.07" departLane="best" departSpeed="max" from="-156974362" to="-195071786"/>
    <trip id="veh336" type="veh_passenger" depart="699.15" departLane="best" departSpeed="max" from="-172699280" to="25440373#2"/>
    <trip id="veh337" type="veh_passenger" depart="701.23" departLane="best" departSpeed="max" from="195071786" to="172699280"/>
    <trip id="veh339" type="veh_passenger" depart="705.40" departLane="best" departSpeed="max" from="195071786" to="172699280"/>
    <trip id="veh344" type="veh_passenger" depart="715.80" departLane="best" departSpeed="max" from="-172699280" to="156974368#0"/>
    <trip id="veh345" type="veh_passenger" depart="717.88" departLane="best" departSpeed="max" from="341528499#0" to="466393862#2"/>
    <trip id="veh346" type="veh_passenger" depart="719.96" departLane="best" departSpeed="max" from="-156974362" to="466393862#2"/>
    <trip id="veh347" type="veh_passenger" depart="722.04" departLane="best" departSpeed="max" from="-156974362" to="-195071786"/>
    <trip id="veh349" type="veh_passenger" depart="726.20" departLane="best" departSpeed="max" from="195071786" to="172699280"/>
    <trip id="veh350" type="veh_passenger" depart="728.28" departLane="best" departSpeed="max" from="-172699280" to="-195071786"/>
    <trip id="veh351" type="veh_passenger" depart="730.37" departLane="best" departSpeed="max" from="-25440373#2" to="466393862#2"/>
    <trip id="veh352" type="veh_passenger" depart="732.45" departLane="best" from="172699277#0" to="466393862#2"/>
    <trip id="veh356" type="veh_passenger" depart="740.77" departLane="best" departSpeed="max" from="-25440373#2" to="156974364"/>
    <trip id="veh357" type="veh_passenger" depart="742.85" departLane="best" departSpeed="max" from="-172699280" to="23897559"/>
    <trip id="veh358" type="veh_passenger" depart="744.93" departLane="best" departSpeed="max" from="-172699280" to="23897559"/>
    <trip id="veh360" type="veh_passenger" depart="749.09" departLane="best" departSpeed="max" from="195071786" to="466393862#2"/>
    <trip id="veh362" type="veh_passenger" depart="753.25" departLane="best" departSpeed="max" from="341528499#0" to="172699280"/>
    <trip id="veh364" type="veh_passenger" depart="757.42" departLane="best" departSpeed="max" from="-572309213" to="25440373#2"/>
    <trip id="veh365" type="veh_passenger" depart="759.50" departLane="best" from="172699277#1" to="466393862#2"/>
    <trip id="veh366" type="veh_passenger" depart="761.58" departLane="best" departSpeed="max" from="-156974362" to="172699280"/>
    <trip id="veh367" type="veh_passenger" depart="763.66" departLane="best" departSpeed="max" from="-25440373#2" to="-8031412"/>
    <trip id="veh368" type="veh_passenger" depart="765.74" departLane="best" departSpeed="max" from="-156974362" to="23897559"/>
    <trip id="veh369" type="veh_passenger" depart="767.82" departLane="best" departSpeed="max" from="-25440373#2" to="172699280"/>
    <trip id="veh370" type="veh_passenger" depart="769.90" departLane="best" departSpeed="max" from="-156974362" to="466393862#2"/>
    <trip id="veh371" type="veh_passenger" depart="771.98" departLane="best" departSpeed="max" from="-156974362" to="466393862#2"/>
    <trip id="veh372" type="veh_passenger" depart="774.06" departLane="best" departSpeed="max" from="-572309213" to="172699280"/>
    <trip id="veh373" type="veh_passenger" depart="776.14" departLane="best" departSpeed="max" from="-572309213" to="466393862#2"/>
    <trip id="veh375" type="veh_passenger" depart="780.31" departLane="best" departSpeed="max" from="-25440373#2" to="172699280"/>
    <trip id="veh376" type="veh_passenger" depart="782.39" departLane="best" departSpeed="max" from="-172699280" to="-195071786"/>