<?xml version="1.0" encoding="UTF-8"?>

<!-- generated on Sun Aug 30 15:46:01 2020 by Eclipse SUMO duarouter Version 1.6.0
<configuration xmlns:xsi="http://www.w3.org/2001/XMLSchema-instance" xsi:noNamespaceSchemaLocation="http://sumo.dlr.de/xsd/duarouterConfiguration.xsd">

    <input>
        <net-file value="/home/simon5521/Sumo/2020-08-30-15-45-58/osm.net.xml"/>
        <route-files value="/home/simon5521/Sumo/2020-08-30-15-45-58/osm.truck.trips.xml"/>
    </input>

    <output>
        <output-file value="/home/simon5521/Sumo/2020-08-30-15-45-58/osm.truck.trips.xml.tmp"/>
        <write-trips value="true"/>
    </output>

    <time>
        <begin value="0"/>
        <end value="3600.0"/>
    </time>

    <report>
        <no-warnings value="true"/>
        <ignore-errors value="true"/>
        <no-step-log value="true"/>
    </report>

</configuration>
-->

<routes xmlns:xsi="http://www.w3.org/2001/XMLSchema-instance" xsi:noNamespaceSchemaLocation="http://sumo.dlr.de/xsd/routes_file.xsd">
    <vType id="truck_truck" vClass="truck"/>
    <trip id="truck5" type="truck_truck" depart="83.23" departLane="best" departSpeed="max" from="-156974362" to="172699280"/>
    <trip id="truck6" type="truck_truck" depart="99.88" departLane="best" departSpeed="max" from="-172699280" to="156974364"/>
    <trip id="truck8" type="truck_truck" depart="133.17" departLane="best" departSpeed="max" from="-156974362" to="172699280"/>
    <trip id="truck10" type="truck_truck" depart="166.47" departLane="best" departSpeed="max" from="341528499#0" to="466393862#2"/>
    <trip id="truck11" type="truck_truck" depart="183.11" departLane="best" departSpeed="max" from="341528499#0" to="466393862#2"/>
    <trip id="truck14" type="truck_truck" depart="233.05" departLane="best" departSpeed="max" from="-25440373#2" to="466393862#2"/>
    <trip id="truck15" type="truck_truck" depart="249.70" departLane="best" departSpeed="max" from="-25440373#2" to="466393862#2"/>
    <trip id="truck16" type="truck_truck" depart="266.34" departLane="best" departSpeed="max" from="341528499#0" to="466393862#2"/>
    <trip id="truck19" type="truck_truck" depart="316.28" departLane="best" departSpeed="max" from="-156974362" to="172699280"/>
    <trip id="truck20" type="truck_truck" depart="332.93" departLane="best" departSpeed="max" from="-172699280" to="156974364"/>
    <trip id="truck21" type="truck_truck" depart="349.58" departLane="best" departSpeed="max" from="-156974362" to="172699280"/>
    <trip id="truck22" type="truck_truck" depart="366.22" departLane="best" departSpeed="max" from="-172699280" to="156974364"/>
    <trip id="truck25" type="truck_truck" depart="416.16" departLane="best" departSpeed="max" from="-25440373#2" to="466393862#2"/>
    <trip id="truck27" type="truck_truck" depart="449.46" departLane="best" departSpeed="max" from="341528499#0" to="466393862#2"/>
    <trip id="truck28" type="truck_truck" depart="466.10" departLane="best" departSpeed="max" from="341528499#0" to="466393862#2"/>
    <trip id="truck29" type="truck_truck" depart="482.75" departLane="best" departSpeed="max" from="-172699280" to="466393862#2"/>
    <trip id="truck31" type="truck_truck" depart="516.04" departLane="best" departSpeed="max" from="341528499#0" to="466393862#2"/>
    <trip id="truck33" type="truck_truck" depart="549.33" departLane="best" departSpeed="max" from="-25440373#2" to="466393862#2"/>
    <trip id="truck35" type="truck_truck" depart="582.63" departLane="best" departSpeed="max" from="-156974362" to="172699280"/>
    <trip id="truck36" type="truck_truck" depart="599.27" departLane="best" departSpeed="max" from="-172699280" to="156974364"/>
    <trip id="truck38" type="truck_truck" depart="632.57" departLane="best" departSpeed="max" from="-25440373#2" to="466393862#2"/>
    <trip id="truck39" type="truck_truck" depart="649.21" departLane="best" departSpeed="max" from="-172699280" to="466393862#2"/>
    <trip id="truck42" type="truck_truck" depart="699.15" departLane="best" departSpeed="max" from="-172699280" to="156974364"/>
    <trip id="truck44" type="truck_truck" depart="732.45" departLane="best" departSpeed="max" from="-172699280" to="156974364"/>
    <trip id="truck48" type="truck_truck" depart="799.03" departLane="best" departSpeed="max" from="-25440373#2" to="466393862#2"/>
    <trip id="truck49" type="truck_truck" depart="815.68" departLane="best" departSpeed="max" from="-172699280" to="466393862#2"/>
    <trip id="truck50" type="truck_truck" depart="832.33" departLane="best" departSpeed="max" from="-25440373#2" to="466393862#2"/>
    <trip id="truck52" type="truck_truck" depart="865.62" departLane="best" departSpeed="max" from="-172699280" to="156974364"/>
    <trip id="truck53" type="truck_truck" depart="882.27" departLane="best" departSpeed="max" from="-172699280" to="156974364"/>
    <trip id="truck54" type="truck_truck" depart="898.91" departLane="best" departSpeed="max" from="-172699280" to="156974364"/>
    <trip id="truck55" type="truck_truck" depart="915.56" departLane="best" departSpeed="max" from="-25440373#2" to="466393862#2"/>
    <trip id="truck56" type="truck_truck" depart="932.20" departLane="best" departSpeed="max" from="-25440373#2" to="466393862#2"/>
    <trip id="truck58" type="truck_truck" depart="965.50" departLane="best" departSpeed="max" from="-156974362" to="172699280"/>
    <trip id="truck60" type="truck_truck" depart="998.79" departLane="best" departSpeed="max" from="-172699280" to="156974364"/>
    <trip id="truck62" type="truck_truck" depart="1032.08" departLane="best" departSpeed="max" from="-172699280" to="156974364"/>
    <trip id="truck63" type="truck_truck" depart="1048.73" departLane="best" departSpeed="max" from="-156974362" to="172699280"/>
    <trip id="truck65" type="truck_truck" depart="1082.02" departLane="best" departSpeed="max" from="-25440373#2" to="466393862#2"/>
    <trip id="truck66" type="truck_truck" depart="1098.67" departLane="best" departSpeed="max" from="-172699280" to="156974364"/>
    <trip id="truck67" type="truck_truck" depart="1115.32" departLane="best" departSpeed="max" from="-25440373#2" to="466393862#2"/>
    <trip id="truck68" type="truck_truck" depart="1131.96" departLane="best" departSpeed="max" from="-172699280" to="466393862#2"/>
    <trip id="truck70" type="truck_truck" depart="1165.26" departLane="best" departSpeed="max" from="-156974362" to="172699280"/>
    <trip id="truck72" type="truck_truck" depart="1198.55" departLane="best" departSpeed="max" from="-172699280" to="156974364"/>
    <trip id="truck73" type="truck_truck" depart="1215.20" departLane="best" departSpeed="max" from="341528499#0" to="466393862#2"/>
    <trip id="truck74" type="truck_truck" depart="1231.84" departLane="best" departSpeed="max" from="341528499#0" to="466393862#2"/>
    <trip id="truck76" type="truck_truck" depart="1265.14" departLane="best" departSpeed="max" from="-172699280" to="156974364"/>
    <trip id="truck77" type="truck_truck" depart="1281.78" departLane="best" departSpeed="max" from="341528499#0" to="466393862#2"/>
    <trip id="truck78" type="truck_truck" depart="1298.43" departLane="best" departSpeed="max" from="-172699280" to="156974364"/>
    <trip id="truck79" type="truck_truck" depart="1315.07" departLane="best" departSpeed="max" from="-172699280" to="466393862#2"/>
    <trip id="truck81" type="truck_truck" depart="1348.37" departLane="best" departSpeed="max" from="-156974362" to="172699280"/>
    <trip id="truck82" type="truck_truck" depart="1365.01" departLane="best" departSpeed="max" from="-156974362" to="172699280"/>
    <trip id="truck84" type="truck_truck" depart="1398.31" departLane="best" departSpeed="max" from="-172699280" to="466393862#2"/>
    <trip id="truck85" type="truck_truck" depart="1414.95" departLane="best" departSpeed="max" from="-156974362" to="172699280"/>
    <trip id="truck86" type="truck_truck" depart="1431.60" departLane="best" departSpeed="max" from="341528499#0" to="466393862#2"/>
    <trip id="truck87" type="truck_truck" depart="1448.25" departLane="best" departSpeed="max" from="-172699280" to="156974364"/>
    <trip id="truck89" type="truck_truck" depart="1481.54" departLane="best" departSpeed="max" from="-172699280" to="156974364"/>
    <trip id="truck90" type="truck_truck" depart="1498.19" departLane="best" departSpeed="max" from="-172699280" to="156974364"/>
    <trip id="truck91" type="truck_truck" depart="1514.83" departLane="best" departSpeed="max" from="-172699280" to="156974364"/>
    <trip id="truck92" type="truck_truck" depart="1531.48" departLane="best" departSpeed="max" from="341528499#0" to="466393862#2"/>
    <trip id="truck93" type="truck_truck" depart="1548.13" departLane="best" departSpeed="max" from="-172699280" to="156974364"/>
    <trip id="truck95" type="truck_truck" depart="1581.42" departLane="best" departSpeed="max" from="341528499#0" to="466393862#2"/>
    <trip id="truck96" type="truck_truck" depart="1598.07" departLane="best" departSpeed="max" from="-172699280" to="466393862#2"/>
    <trip id="truck99" type="truck_truck" depart="1648.00" departLane="best" departSpeed="max" from="-25440373#2" to="466393862#2"/>
    <trip id="truck100" type="truck_truck" depart="1664.65" departLane="best" departSpeed="max" from="-25440373#2" to="466393862#2"/>
    <trip id="truck102" type="truck_truck" depart="1697.94" departLane="best" departSpeed="max" from="-25440373#2" to="466393862#2"/>
    <trip id="truck105" type="truck_truck" depart="1747.88" departLane="best" departSpeed="max" from="-25440373#2" to="466393862#2"/>
    <trip id="truck106" type="truck_truck" depart="1764.53" departLane="best" departSpeed="max" from="-25440373#2" to="466393862#2"/>
    <trip id="truck108" type="truck_truck" depart="1797.82" departLane="best" departSpeed="max" from="-172699280" to="156974364"/>
    <trip id="truck109" type="truck_truck" depart="1814.47" departLane="best" departSpeed="max" from="341528499#0" to="466393862#2"/>
    <trip id="truck110" type="truck_truck" depart="1831.12" departLane="best" departSpeed="max" from="-172699280" to="466393862#2"/>
    <trip id="truck111" type="truck_truck" depart="1847.76" departLane="best" departSpeed="max" from="341528499#0" to="466393862#2"/>
    <trip id="truck112" type="truck_truck" depart="1864.41" departLane="best" departSpeed="max" from="-172699280" to="156974364"/>
    <trip id="truck114" type="truck_truck" depart="1897.70" departLane="best" departSpeed="max" from="-25440373#2" to="466393862#2"/>
    <trip id="truck115" type="truck_truck" depart="1914.35" departLane="best" departSpeed="max" from="341528499#0" to="466393862#2"/>
    <trip id="truck116" type="truck_truck" depart="1931.00" departLane="best" departSpeed="max" from="-172699280" to="466393862#2"/>
    <trip id="truck117" type="truck_truck" depart="1947.64" departLane="best" departSpeed="max" from="-172699280" to="466393862#2"/>
    <trip id="truck123" type="truck_truck" depart="2047.52" departLane="best" departSpeed="max" from="-25440373#2" to="466393862#2"/>
    <trip id="truck125" type="truck_truck" depart="2080.81" departLane="best" departSpeed="max" from="-156974362" to="172699280"/>
    <trip id="truck126" type="truck_truck" depart="2097.46" departLane="best" departSpeed="max" from="-172699280" to="466393862#2"/>
    <trip id="truck134" type="truck_truck" depart="2230.63" departLane="best" departSpeed="max" from="-25440373#2" to="466393862#2"/>
    <trip id="truck135" type="truck_truck" depart="2247.28" departLane="best" departSpeed="max" from="-172699280" to="466393862#2"/>
    <trip id="truck136" type="truck_truck" depart="2263.93" departLane="best" departSpeed="max" from="-172699280" to="466393862#2"/>
    <trip id="truck137" type="truck_truck" depart="2280.57" departLane="best" departSpeed="max" from="-172699280" to="466393862#2"/>
    <trip id="truck140" type="truck_truck" depart="2330.51" departLane="best" departSpeed="max" from="341528499#0" to="466393862#2"/>
    <trip id="truck141" type="truck_truck" depart="2347.16" departLane="best" departSpeed="max" from="-172699280" to="156974364"/>
    <trip id="truck142" type="truck_truck" depart="2363.80" departLane="best" departSpeed="max" from="-25440373#2" to="466393862#2"/>
    <trip id="truck143" type="truck_truck" depart="2380.45" departLane="best" departSpeed="max" from="341528499#0" to="466393862#2"/>
    <trip id="truck144" type="truck_truck" depart="2397.10" departLane="best" departSpeed="max" from="-172699280" to="466393862#2"/>
    <trip id="truck145" type="truck_truck" depart="2413.74" departLane="best" departSpeed="max" from="-25440373#2" to="466393862#2"/>
    <trip id="truck146" type="truck_truck" depart="2430.39" departLane="best" departSpeed="max" from="341528499#0" to="466393862#2"/>
    <trip id="truck149" type="truck_truck" depart="2480.33" departLane="best" departSpeed="max" from="-172699280" to="156974364"/>
    <trip id="truck150" type="truck_truck" depart="2496.98" departLane="best" departSpeed="max" from="-172699280" to="156974364"/>
    <trip id="truck153" type="truck_truck" depart="2546.92" departLane="best" departSpeed="max" from="341528499#0" to="466393862#2"/>
    <trip id="truck155" type="truck_truck" depart="2580.21" departLane="best" departSpeed="max" from="-172699280" to="156974364"/>
    <trip id="truck157" type="truck_truck" depart="2613.50" departLane="best" departSpeed="max" from="-172699280" to="466393862#2"/>
    <trip id="truck159" type="truck_truck" depart="2646.80" departLane="best" departSpeed="max" from="-172699280" to="466393862#2"/>
    <trip id="truck160" type="truck_truck" depart="2663.44" departLane="best" departSpeed="max" from="-172699280" to="466393862#2"/>
    <trip id="truck163" type="truck_truck" depart="2713.38" departLane="best" departSpeed="max" from="-156974362" to="172699280"/>
    <trip id="truck164" type="truck_truck" depart="2730.03" departLane="best" departSpeed="max" from="-156974362" to="172699280"/>
    <trip id="truck166" type="truck_truck" depart="2763.32" departLane="best" departSpeed="max" from="-156974362" to="172699280"/>
    <trip id="truck167" type="truck_truck" depart="2779.97" departLane="best" departSpeed="max" from="-172699280" to="466393862#2"/>
    <trip id="truck169" type="truck_truck" depart="2813.26" departLane="best" departSpeed="max" from="-172699280" to="156974364"/>
    <trip id="truck171" type="truck_truck" depart="2846.55" departLane="best" departSpeed="max" from="-156974362" to="172699280"/>
    <trip id="truck172" type="truck_truck" depart="2863.20" departLane="best" departSpeed="max" from="-156974362" to="172699280"/>
    <trip id="truck173" type="truck_truck" depart="2879.85" departLane="best" departSpeed="max" from="-172699280" to="156974364"/>
    <trip id="truck176" type="truck_truck" depart="2929.79" departLane="best" departSpeed="max" from="-156974362" to="172699280"/>
    <trip id="truck177" type="truck_truck" depart="2946.43" departLane="best" departSpeed="max" from="-25440373#2" to="466393862#2"/>
    <trip id="truck178" type="truck_truck" depart="2963.08" departLane="best" departSpeed="max" from="-172699280" to="466393862#2"/>
    <trip id="truck179" type="truck_truck" depart="2979.73" departLane="best" departSpeed="max" from="-172699280" to="466393862#2"/>
    <trip id="truck180" type="truck_truck" depart="2996.37" departLane="best" departSpeed="max" from="-156974362" to="172699280"/>
    <trip id="truck182" type="truck_truck" depart="3029.67" departLane="best" departSpeed="max" from="-172699280" to="156974364"/>
    <trip id="truck183" type="truck_truck" depart="3046.31" departLane="best" departSpeed="max" from="-172699280" to="466393862#2"/>
    <trip id="truck184" type="truck_truck" depart="3062.96" departLane="best" departSpeed="max" from="-156974362" to="172699280"/>
    <trip id="truck185" type="truck_truck" depart="3079.61" departLane="best" departSpeed="max" from="-156974362" to="172699280"/>
    <trip id="truck186" type="truck_truck" depart="3096.25" departLane="best" departSpeed="max" from="341528499#0" to="466393862#2"/>
    <trip id="truck188" type="truck_truck" depart="3129.54" departLane="best" departSpeed="max" from="-172699280" to="466393862#2"/>
    <trip id="truck189" type="truck_truck" depart="3146.19" departLane="best" departSpeed="max" from="-25440373#2" to="466393862#2"/>
    <trip id="truck191" type="truck_truck" depart="3179.48" departLane="best" departSpeed="max" from="-172699280" to="156974364"/>
    <trip id="truck193" type="truck_truck" depart="3212.78" departLane="best" departSpeed="max" from="-172699280" to="156974364"/>
    <trip id="truck194" type="truck_truck" depart="3229.42" departLane="best" departSpeed="max" from="-172699280" to="466393862#2"/>
    <trip id="truck197" type="truck_truck" depart="3279.36" departLane="best" departSpeed="max" from="-172699280" to="156974364"/>
    <trip id="truck198" type="truck_truck" depart="3296.01" departLane="best" departSpeed="max" from="-172699280" to="156974364"/>
    <trip id="truck199" type="truck_truck" depart="3312.66" departLane="best" departSpeed="max" from="-25440373#2" to="466393862#2"/>
    <trip id="truck200" type="truck_truck" depart="3329.30" departLane="best" departSpeed="max" from="-25440373#2" to="466393862#2"/>
    <trip id="truck202" type="truck_truck" depart="3362.60" departLane="best" departSpeed="max" from="-172699280" to="466393862#2"/>
    <trip id="truck205" type="truck_truck" depart="3412.54" departLane="best" departSpeed="max" from="341528499#0" to="466393862#2"/>
    <trip id="truck206" type="truck_truck" depart="3429.18" departLane="best" departSpeed="max" from="341528499#0" to="466393862#2"/>
    <trip id="truck207" type="truck_truck" depart="3445.83" departLane="best" departSpeed="max" from="-172699280" to="156974364"/>
    <trip id="truck211" type="truck_truck" depart="3512.41" departLane="best" departSpeed="max" from="-172699280" to="466393862#2"/>
    <trip id="truck214" type="truck_truck" depart="3562.35" departLane="best" departSpeed="max" from="-172699280" to="156974364"/>
    <trip id="truck215" type="truck_truck" depart="3579.00" departLane="best" departSpeed="max" from="341528499#0" to="466393862#2"/>
</routes>
