<?xml version="1.0" encoding="UTF-8"?>
<!-- generated on 2020-08-30 15:46:00.623917 by osmWebWizard.py UNKNOWN
  options: 
-->
<routes xmlns:xsi="http://www.w3.org/2001/XMLSchema-instance" xsi:noNamespaceSchemaLocation="http://sumo.dlr.de/xsd/routes_file.xsd">
    <vType id="pt_bus" vClass="bus"/>
    <vType id="pt_tram" vClass="tram"/>
    <vType id="pt_train" vClass="rail"/>
    <vType id="pt_subway" vClass="rail_urban"/>
    <vType id="pt_light_rail" vClass="rail_urban"/>
    <vType id="pt_monorail" vClass="rail"/>
    <vType id="pt_trolleybus" vClass="bus"/>
    <vType id="pt_aerialway" vClass="bus"/>
    <vType id="pt_ferry" vClass="ship"/>
    <route id="pt_bus_16:0" edges="-172699280 156974370 519640239 516397654 504637556 172699277#0 172699277#1 466393862#0 466393862#1 466393862#2" >
        <stop busStop="436615359" duration="30.00" until="104.0"/> <!-- Clark Ádám tér -->
    </route>
    <route id="pt_bus_105:1" edges="-172699280 156974370 519640239 516397654 504637556 172699277#0 172699277#1 156974364" >
        <stop busStop="436615359" duration="30.00" until="105.0"/> <!-- Clark Ádám tér -->
    </route>
    <route id="pt_bus_990:0" edges="-572309213 -8031412 620937260#1 504637556 519640249 431070345 504637557 519640244 172699279 172699280" >
        <stop busStop="-2894342918" duration="30.00" until="51.0"/> <!-- Clark Ádám tér -->
    </route>
    <route id="pt_bus_916:1" edges="-172699280 156974370 519640239 516397654 504637556 172699277#0 172699277#1 466393862#0 466393862#1 466393862#2" >
        <stop busStop="436615359" duration="30.00" until="101.0"/> <!-- Clark Ádám tér -->
    </route>
    <route id="pt_bus_990:1" edges="-172699280 156974370 519640239 172699278#0 8031412 572309213" >
        <stop busStop="2894342919" duration="30.00" until="101.0"/> <!-- Clark Ádám tér -->
    </route>
    <route id="pt_bus_990:2" edges="-572309213 -8031412 620937260#1 504637556 519640249 431070345 504637557 519640244 172699279 172699280" >
        <stop busStop="-2894342918" duration="30.00" until="49.0"/> <!-- Clark Ádám tér -->
    </route>
    <route id="pt_bus_990:3" edges="-172699280 156974370 519640239 172699278#0 8031412 572309213" >
        <stop busStop="2894342919" duration="30.00" until="104.0"/> <!-- Clark Ádám tér -->
    </route>
    <route id="pt_bus_990:4" edges="-572309213 -8031412 620937260#1 504637556 519640249 431070345 504637557 519640244 172699279 172699280" >
        <stop busStop="-2894342918" duration="30.00" until="49.0"/> <!-- Clark Ádám tér -->
    </route>
    <route id="pt_tram_19:1" edges="156522830 332258799 724431307#0 724431307#2 724431307#3 332258800 389797453#1 584422095" >
        <stop busStop="263342274" duration="30.00" until="58.0"/> <!-- Várkert Bazár -->
        <stop busStop="263342276" duration="30.00" until="132.0"/> <!-- Clark Ádám tér -->
        <stop busStop="263344571" duration="30.00" until="275.0"/> <!-- Halász utca -->
    </route>
    <route id="pt_bus_990:5" edges="-572309213 -8031412 620937260#1 504637556 519640249 431070345 504637557 519640244 172699279 172699280" >
        <stop busStop="-2894342918" duration="30.00" until="51.0"/> <!-- Clark Ádám tér -->
    </route>
    <route id="pt_tram_19:0" edges="584422096 332258799" >
        <stop busStop="811130540" duration="30.00" until="64.0"/> <!-- Halász utca -->
        <stop busStop="263342276" duration="30.00" until="434.0"/> <!-- Clark Ádám tér -->
    </route>
    <route id="pt_tram_41:1" edges="584422096 389797449#0 389797449#1 389797449#2 781643175#0 781643175#2" >
        <stop busStop="811130540" duration="30.00" until="64.0"/> <!-- Halász utca -->
        <stop busStop="690201138" duration="30.00" until="387.0"/> <!-- Clark Ádám tér -->
    </route>
    <route id="pt_tram_41:0" edges="156522830 332258799 724431307#0 724431307#2 724431307#3 332258800 389797453#1 584422095" >
        <stop busStop="263342274" duration="30.00" until="74.0"/> <!-- Várkert Bazár -->
        <stop busStop="263342276" duration="30.00" until="149.0"/> <!-- Clark Ádám tér -->
        <stop busStop="263344571" duration="30.00" until="422.0"/> <!-- Halász utca -->
    </route>
    <flow id="pt_bus_16:0" type="pt_bus" route="pt_bus_16:0" begin="15.0" end="3615.0" period="600" line="16:0" >
        <param key="name" value="16=&gt; Széll Kálmán tér M"/>
        <param key="completeness" value="0.10"/>
    </flow>
    <flow id="pt_bus_105:1" type="pt_bus" route="pt_bus_105:1" begin="52.0" end="3652.0" period="600" line="105:1" >
        <param key="name" value="105 =&gt; Apor Vilmos tér"/>
        <param key="completeness" value="0.03"/>
    </flow>
    <flow id="pt_bus_990:0" type="pt_bus" route="pt_bus_990:0" begin="133.0" end="3733.0" period="600" line="990:0" >
        <param key="name" value="990 =&gt; Rákoskert =&gt; Rákoskeresztúr, városközpont"/>
        <param key="completeness" value="0.01"/>
    </flow>
    <flow id="pt_bus_916:1" type="pt_bus" route="pt_bus_916:1" begin="131.0" end="3731.0" period="600" line="916:1" >
        <param key="name" value="916 =&gt; Széll Kálmán tér M"/>
        <param key="completeness" value="0.07"/>
    </flow>
    <flow id="pt_bus_990:1" type="pt_bus" route="pt_bus_990:1" begin="165.0" end="3765.0" period="600" line="990:1" >
        <param key="name" value="990 =&gt; Normafa"/>
        <param key="completeness" value="0.01"/>
    </flow>
    <flow id="pt_bus_990:2" type="pt_bus" route="pt_bus_990:2" begin="389.0" end="3989.0" period="600" line="990:2" >
        <param key="name" value="990 =&gt; Keleti pályaudvar M"/>
        <param key="completeness" value="0.02"/>
    </flow>
    <flow id="pt_bus_990:3" type="pt_bus" route="pt_bus_990:3" begin="406.0" end="4006.0" period="600" line="990:3" >
        <param key="name" value="990 =&gt; Normafa"/>
        <param key="completeness" value="0.02"/>
    </flow>
    <flow id="pt_bus_990:4" type="pt_bus" route="pt_bus_990:4" begin="441.0" end="4041.0" period="600" line="990:4" >
        <param key="name" value="990 =&gt; Rákoskeresztúr, városközpont"/>
        <param key="completeness" value="0.01"/>
    </flow>
    <flow id="pt_tram_19:1" type="pt_tram" route="pt_tram_19:1" begin="303.0" end="3903.0" period="600" line="19:1" >
        <param key="name" value="19 =&gt; Bécsi út / Vörösvári út"/>
        <param key="completeness" value="0.12"/>
    </flow>
    <flow id="pt_bus_990:5" type="pt_bus" route="pt_bus_990:5" begin="535.0" end="4135.0" period="600" line="990:5" >
        <param key="name" value="990 =&gt; Rákoskert =&gt; Rákoskeresztúr, városközpont"/>
        <param key="completeness" value="0.01"/>
    </flow>
    <flow id="pt_tram_19:0" type="pt_tram" route="pt_tram_19:0" begin="253.0" end="3853.0" period="600" line="19:0" >
        <param key="name" value="19 =&gt; Csóka utca"/>
        <param key="completeness" value="0.09"/>
    </flow>
    <flow id="pt_tram_41:1" type="pt_tram" route="pt_tram_41:1" begin="383.0" end="3983.0" period="600" line="41:1" >
        <param key="name" value="41 =&gt; Kamaraerdei Ifjúsági Park"/>
        <param key="completeness" value="0.05"/>
    </flow>
    <flow id="pt_tram_41:0" type="pt_tram" route="pt_tram_41:0" begin="326.0" end="3926.0" period="600" line="41:0" >
        <param key="name" value="41 =&gt; Bécsi út / Vörösvári út"/>
        <param key="completeness" value="0.08"/>
    </flow>
</routes>
