<?xml version="1.0" encoding="UTF-8"?>
<!-- generated on 2020-08-30 15:46:00.499364 by osmWebWizard.py UNKNOWN
  options: 
-->
<routes xmlns:xsi="http://www.w3.org/2001/XMLSchema-instance" xsi:noNamespaceSchemaLocation="http://sumo.dlr.de/xsd/routes_file.xsd">
    <vType id="pt_bus" vClass="bus"/>
    <vType id="pt_tram" vClass="tram"/>
    <vType id="pt_train" vClass="rail"/>
    <vType id="pt_subway" vClass="rail_urban"/>
    <vType id="pt_light_rail" vClass="rail_urban"/>
    <vType id="pt_monorail" vClass="rail"/>
    <vType id="pt_trolleybus" vClass="bus"/>
    <vType id="pt_aerialway" vClass="bus"/>
    <vType id="pt_ferry" vClass="ship"/>
    <trip id="0_bus_16:0" type="pt_bus" depart="15" departLane="best" from="-172699280" to="466393862#2">
        <stop busStop="436615359" duration="30"/>
    </trip>
    <trip id="1_bus_16:1" type="pt_bus" depart="15" departLane="best" from="617134040#0" to="617134040#0">
        <stop busStop="436615360" duration="30"/>
    </trip>
    <trip id="2_bus_105:0" type="pt_bus" depart="17" departLane="best" from="617134040#0" to="617134040#0">
        <stop busStop="436615360" duration="30"/>
    </trip>
    <trip id="3_bus_105:1" type="pt_bus" depart="52" departLane="best" from="-172699280" to="156974364">
        <stop busStop="436615359" duration="30"/>
    </trip>
    <trip id="4_bus_916:0" type="pt_bus" depart="119" departLane="best" from="617134040#0" to="617134040#0">
        <stop busStop="436615360" duration="30"/>
    </trip>
    <trip id="5_bus_916:1" type="pt_bus" depart="131" departLane="best" from="-172699280" to="466393862#2">
        <stop busStop="436615359" duration="30"/>
    </trip>
    <trip id="6_bus_990:0" type="pt_bus" depart="133" departLane="best" from="-572309213" to="172699280">
        <stop busStop="-2894342918" duration="30"/>
    </trip>
    <trip id="7_bus_990:1" type="pt_bus" depart="165" departLane="best" from="-172699280" to="572309213">
        <stop busStop="2894342919" duration="30"/>
    </trip>
    <trip id="8_tram_19:0" type="pt_tram" depart="253" departLane="best" from="584422096" to="332258799">
        <stop busStop="811130540" duration="30"/>
        <stop busStop="263342276" duration="30"/>
    </trip>
    <trip id="9_tram_19:1" type="pt_tram" depart="303" departLane="best" from="156522830" to="584422095">
        <stop busStop="263342274" duration="30"/>
        <stop busStop="263342276" duration="30"/>
        <stop busStop="263344571" duration="30"/>
    </trip>
    <trip id="10_tram_41:0" type="pt_tram" depart="326" departLane="best" from="156522830" to="584422095">
        <stop busStop="263342274" duration="30"/>
        <stop busStop="263342276" duration="30"/>
        <stop busStop="263344571" duration="30"/>
    </trip>
    <trip id="11_tram_41:1" type="pt_tram" depart="383" departLane="best" from="584422096" to="781643175#2">
        <stop busStop="811130540" duration="30"/>
        <stop busStop="690201138" duration="30"/>
    </trip>
    <trip id="12_bus_990:2" type="pt_bus" depart="389" departLane="best" from="-572309213" to="172699280">
        <stop busStop="-2894342918" duration="30"/>
    </trip>
    <trip id="13_bus_990:3" type="pt_bus" depart="406" departLane="best" from="-172699280" to="572309213">
        <stop busStop="2894342919" duration="30"/>
    </trip>
    <trip id="14_bus_990:4" type="pt_bus" depart="441" departLane="best" from="-572309213" to="172699280">
        <stop busStop="-2894342918" duration="30"/>
    </trip>
    <trip id="15_bus_990:5" type="pt_bus" depart="535" departLane="best" from="-572309213" to="172699280">
        <stop busStop="-2894342918" duration="30"/>
    </trip>
</routes>
