<?xml version="1.0" encoding="UTF-8"?>

<!-- generated on Sun Aug 30 15:46:01 2020 by Eclipse SUMO duarouter Version 1.6.0
<configuration xmlns:xsi="http://www.w3.org/2001/XMLSchema-instance" xsi:noNamespaceSchemaLocation="http://sumo.dlr.de/xsd/duarouterConfiguration.xsd">

    <input>
        <net-file value="/home/simon5521/Sumo/2020-08-30-15-45-58/osm.net.xml"/>
        <route-files value="/home/simon5521/Sumo/2020-08-30-15-45-58/osm.bus.trips.xml"/>
    </input>

    <output>
        <output-file value="/home/simon5521/Sumo/2020-08-30-15-45-58/osm.bus.trips.xml.tmp"/>
        <write-trips value="true"/>
    </output>

    <time>
        <begin value="0"/>
        <end value="3600.0"/>
    </time>

    <report>
        <no-warnings value="true"/>
        <ignore-errors value="true"/>
        <no-step-log value="true"/>
    </report>

</configuration>
-->

<routes xmlns:xsi="http://www.w3.org/2001/XMLSchema-instance" xsi:noNamespaceSchemaLocation="http://sumo.dlr.de/xsd/routes_file.xsd">
    <vType id="bus_bus" vClass="bus"/>
    <trip id="bus5" type="bus_bus" depart="69.36" departLane="best" departSpeed="max" from="-156974362" to="172699280"/>
    <trip id="bus6" type="bus_bus" depart="83.23" departLane="best" departSpeed="max" from="-172699280" to="156974364"/>
    <trip id="bus8" type="bus_bus" depart="110.98" departLane="best" departSpeed="max" from="-156974362" to="172699280"/>
    <trip id="bus10" type="bus_bus" depart="138.72" departLane="best" departSpeed="max" from="341528499#0" to="466393862#2"/>
    <trip id="bus11" type="bus_bus" depart="152.59" departLane="best" departSpeed="max" from="341528499#0" to="466393862#2"/>
    <trip id="bus14" type="bus_bus" depart="194.21" departLane="best" departSpeed="max" from="-25440373#2" to="466393862#2"/>
    <trip id="bus15" type="bus_bus" depart="208.08" departLane="best" departSpeed="max" from="-25440373#2" to="466393862#2"/>
    <trip id="bus16" type="bus_bus" depart="221.95" departLane="best" departSpeed="max" from="341528499#0" to="466393862#2"/>
    <trip id="bus19" type="bus_bus" depart="263.57" departLane="best" departSpeed="max" from="-156974362" to="172699280"/>
    <trip id="bus20" type="bus_bus" depart="277.44" departLane="best" departSpeed="max" from="-172699280" to="156974364"/>
    <trip id="bus21" type="bus_bus" depart="291.31" departLane="best" departSpeed="max" from="-156974362" to="172699280"/>
    <trip id="bus22" type="bus_bus" depart="305.19" departLane="best" departSpeed="max" from="-172699280" to="156974364"/>
    <trip id="bus25" type="bus_bus" depart="346.80" departLane="best" departSpeed="max" from="-25440373#2" to="466393862#2"/>
    <trip id="bus27" type="bus_bus" depart="374.55" departLane="best" departSpeed="max" from="341528499#0" to="466393862#2"/>
    <trip id="bus28" type="bus_bus" depart="388.42" departLane="best" departSpeed="max" from="341528499#0" to="466393862#2"/>
    <trip id="bus29" type="bus_bus" depart="402.29" departLane="best" departSpeed="max" from="-172699280" to="466393862#2"/>
    <trip id="bus31" type="bus_bus" depart="430.03" departLane="best" departSpeed="max" from="341528499#0" to="466393862#2"/>
    <trip id="bus33" type="bus_bus" depart="457.78" departLane="best" departSpeed="max" from="-25440373#2" to="466393862#2"/>
    <trip id="bus35" type="bus_bus" depart="485.52" departLane="best" departSpeed="max" from="-156974362" to="172699280"/>
    <trip id="bus36" type="bus_bus" depart="499.40" departLane="best" departSpeed="max" from="-172699280" to="156974364"/>
    <trip id="bus38" type="bus_bus" depart="527.14" departLane="best" departSpeed="max" from="-25440373#2" to="466393862#2"/>
    <trip id="bus39" type="bus_bus" depart="541.01" departLane="best" departSpeed="max" from="-172699280" to="466393862#2"/>
    <trip id="bus42" type="bus_bus" depart="582.63" departLane="best" departSpeed="max" from="-172699280" to="156974364"/>
    <trip id="bus44" type="bus_bus" depart="610.37" departLane="best" departSpeed="max" from="-172699280" to="156974364"/>
    <trip id="bus48" type="bus_bus" depart="665.86" departLane="best" departSpeed="max" from="-25440373#2" to="466393862#2"/>
    <trip id="bus49" type="bus_bus" depart="679.73" departLane="best" departSpeed="max" from="-172699280" to="466393862#2"/>
    <trip id="bus50" type="bus_bus" depart="693.60" departLane="best" departSpeed="max" from="-25440373#2" to="466393862#2"/>
    <trip id="bus52" type="bus_bus" depart="721.35" departLane="best" departSpeed="max" from="-172699280" to="156974364"/>
    <trip id="bus53" type="bus_bus" depart="735.22" departLane="best" departSpeed="max" from="-172699280" to="156974364"/>
    <trip id="bus54" type="bus_bus" depart="749.09" departLane="best" departSpeed="max" from="-172699280" to="156974364"/>
    <trip id="bus55" type="bus_bus" depart="762.97" departLane="best" departSpeed="max" from="-25440373#2" to="466393862#2"/>
    <trip id="bus56" type="bus_bus" depart="776.84" departLane="best" departSpeed="max" from="-25440373#2" to="466393862#2"/>
    <trip id="bus58" type="bus_bus" depart="804.58" departLane="best" departSpeed="max" from="-156974362" to="172699280"/>
    <trip id="bus60" type="bus_bus" depart="832.33" departLane="best" departSpeed="max" from="-172699280" to="156974364"/>
    <trip id="bus62" type="bus_bus" depart="860.07" departLane="best" departSpeed="max" from="-172699280" to="156974364"/>
    <trip id="bus63" type="bus_bus" depart="873.94" departLane="best" departSpeed="max" from="-156974362" to="172699280"/>
    <trip id="bus65" type="bus_bus" depart="901.69" departLane="best" departSpeed="max" from="-25440373#2" to="466393862#2"/>
    <trip id="bus66" type="bus_bus" depart="915.56" departLane="best" departSpeed="max" from="-172699280" to="156974364"/>
    <trip id="bus67" type="bus_bus" depart="929.43" departLane="best" departSpeed="max" from="-25440373#2" to="466393862#2"/>
    <trip id="bus68" type="bus_bus" depart="943.30" departLane="best" departSpeed="max" from="-172699280" to="466393862#2"/>
    <trip id="bus70" type="bus_bus" depart="971.05" departLane="best" departSpeed="max" from="-156974362" to="172699280"/>
    <trip id="bus72" type="bus_bus" depart="998.79" departLane="best" departSpeed="max" from="-172699280" to="156974364"/>
    <trip id="bus73" type="bus_bus" depart="1012.66" departLane="best" departSpeed="max" from="341528499#0" to="466393862#2"/>
    <trip id="bus74" type="bus_bus" depart="1026.54" departLane="best" departSpeed="max" from="341528499#0" to="466393862#2"/>
    <trip id="bus76" type="bus_bus" depart="1054.28" departLane="best" departSpeed="max" from="-172699280" to="156974364"/>
    <trip id="bus77" type="bus_bus" depart="1068.15" departLane="best" departSpeed="max" from="341528499#0" to="466393862#2"/>
    <trip id="bus78" type="bus_bus" depart="1082.02" departLane="best" departSpeed="max" from="-172699280" to="156974364"/>
    <trip id="bus79" type="bus_bus" depart="1095.90" departLane="best" departSpeed="max" from="-172699280" to="466393862#2"/>
    <trip id="bus81" type="bus_bus" depart="1123.64" departLane="best" departSpeed="max" from="-156974362" to="172699280"/>
    <trip id="bus82" type="bus_bus" depart="1137.51" departLane="best" departSpeed="max" from="-156974362" to="172699280"/>
    <trip id="bus84" type="bus_bus" depart="1165.26" departLane="best" departSpeed="max" from="-172699280" to="466393862#2"/>
    <trip id="bus85" type="bus_bus" depart="1179.13" departLane="best" departSpeed="max" from="-156974362" to="172699280"/>
    <trip id="bus86" type="bus_bus" depart="1193.00" departLane="best" departSpeed="max" from="341528499#0" to="466393862#2"/>
    <trip id="bus87" type="bus_bus" depart="1206.87" departLane="best" departSpeed="max" from="-172699280" to="156974364"/>
    <trip id="bus89" type="bus_bus" depart="1234.62" departLane="best" departSpeed="max" from="-172699280" to="156974364"/>
    <trip id="bus90" type="bus_bus" depart="1248.49" departLane="best" departSpeed="max" from="-172699280" to="156974364"/>
    <trip id="bus91" type="bus_bus" depart="1262.36" departLane="best" departSpeed="max" from="-172699280" to="156974364"/>
    <trip id="bus92" type="bus_bus" depart="1276.23" departLane="best" departSpeed="max" from="341528499#0" to="466393862#2"/>
    <trip id="bus93" type="bus_bus" depart="1290.10" departLane="best" departSpeed="max" from="-172699280" to="156974364"/>
    <trip id="bus95" type="bus_bus" depart="1317.85" departLane="best" departSpeed="max" from="341528499#0" to="466393862#2"/>
    <trip id="bus96" type="bus_bus" depart="1331.72" departLane="best" departSpeed="max" from="-172699280" to="466393862#2"/>
    <trip id="bus99" type="bus_bus" depart="1373.34" departLane="best" departSpeed="max" from="-25440373#2" to="466393862#2"/>
    <trip id="bus100" type="bus_bus" depart="1387.21" departLane="best" departSpeed="max" from="-25440373#2" to="466393862#2"/>
    <trip id="bus102" type="bus_bus" depart="1414.95" departLane="best" departSpeed="max" from="-25440373#2" to="466393862#2"/>
    <trip id="bus105" type="bus_bus" depart="1456.57" departLane="best" departSpeed="max" from="-25440373#2" to="466393862#2"/>
    <trip id="bus106" type="bus_bus" depart="1470.44" departLane="best" departSpeed="max" from="-25440373#2" to="466393862#2"/>
    <trip id="bus108" type="bus_bus" depart="1498.19" departLane="best" departSpeed="max" from="-172699280" to="156974364"/>
    <trip id="bus109" type="bus_bus" depart="1512.06" departLane="best" departSpeed="max" from="341528499#0" to="466393862#2"/>
    <trip id="bus110" type="bus_bus" depart="1525.93" departLane="best" departSpeed="max" from="-172699280" to="466393862#2"/>
    <trip id="bus111" type="bus_bus" depart="1539.80" departLane="best" departSpeed="max" from="341528499#0" to="466393862#2"/>
    <trip id="bus112" type="bus_bus" depart="1553.67" departLane="best" departSpeed="max" from="-172699280" to="156974364"/>
    <trip id="bus114" type="bus_bus" depart="1581.42" departLane="best" departSpeed="max" from="-25440373#2" to="466393862#2"/>
    <trip id="bus115" type="bus_bus" depart="1595.29" departLane="best" departSpeed="max" from="341528499#0" to="466393862#2"/>
    <trip id="bus116" type="bus_bus" depart="1609.16" departLane="best" departSpeed="max" from="-172699280" to="466393862#2"/>
    <trip id="bus117" type="bus_bus" depart="1623.04" departLane="best" departSpeed="max" from="-172699280" to="466393862#2"/>
    <trip id="bus123" type="bus_bus" depart="1706.27" departLane="best" departSpeed="max" from="-25440373#2" to="466393862#2"/>
    <trip id="bus125" type="bus_bus" depart="1734.01" departLane="best" departSpeed="max" from="-156974362" to="172699280"/>
    <trip id="bus126" type="bus_bus" depart="1747.88" departLane="best" departSpeed="max" from="-172699280" to="466393862#2"/>
    <trip id="bus134" type="bus_bus" depart="1858.86" departLane="best" departSpeed="max" from="-25440373#2" to="466393862#2"/>
    <trip id="bus135" type="bus_bus" depart="1872.73" departLane="best" departSpeed="max" from="-172699280" to="466393862#2"/>
    <trip id="bus136" type="bus_bus" depart="1886.60" departLane="best" departSpeed="max" from="-172699280" to="466393862#2"/>
    <trip id="bus137" type="bus_bus" depart="1900.48" departLane="best" departSpeed="max" from="-172699280" to="466393862#2"/>
    <trip id="bus140" type="bus_bus" depart="1942.09" departLane="best" departSpeed="max" from="341528499#0" to="466393862#2"/>
    <trip id="bus141" type="bus_bus" depart="1955.97" departLane="best" departSpeed="max" from="-172699280" to="156974364"/>
    <trip id="bus142" type="bus_bus" depart="1969.84" departLane="best" departSpeed="max" from="-25440373#2" to="466393862#2"/>
    <trip id="bus143" type="bus_bus" depart="1983.71" departLane="best" departSpeed="max" from="341528499#0" to="466393862#2"/>
    <trip id="bus144" type="bus_bus" depart="1997.58" departLane="best" departSpeed="max" from="-172699280" to="466393862#2"/>
    <trip id="bus145" type="bus_bus" depart="2011.45" departLane="best" departSpeed="max" from="-25440373#2" to="466393862#2"/>
    <trip id="bus146" type="bus_bus" depart="2025.33" departLane="best" departSpeed="max" from="341528499#0" to="466393862#2"/>
    <trip id="bus149" type="bus_bus" depart="2066.94" departLane="best" departSpeed="max" from="-172699280" to="156974364"/>
    <trip id="bus150" type="bus_bus" depart="2080.81" departLane="best" departSpeed="max" from="-172699280" to="156974364"/>
    <trip id="bus153" type="bus_bus" depart="2122.43" departLane="best" departSpeed="max" from="341528499#0" to="466393862#2"/>
    <trip id="bus155" type="bus_bus" depart="2150.17" departLane="best" departSpeed="max" from="-172699280" to="156974364"/>
    <trip id="bus157" type="bus_bus" depart="2177.92" departLane="best" departSpeed="max" from="-172699280" to="466393862#2"/>
    <trip id="bus159" type="bus_bus" depart="2205.66" departLane="best" departSpeed="max" from="-172699280" to="466393862#2"/>
    <trip id="bus160" type="bus_bus" depart="2219.54" departLane="best" departSpeed="max" from="-172699280" to="466393862#2"/>
    <trip id="bus163" type="bus_bus" depart="2261.15" departLane="best" departSpeed="max" from="-156974362" to="172699280"/>
    <trip id="bus164" type="bus_bus" depart="2275.02" departLane="best" departSpeed="max" from="-156974362" to="172699280"/>
    <trip id="bus166" type="bus_bus" depart="2302.77" departLane="best" departSpeed="max" from="-156974362" to="172699280"/>
    <trip id="bus167" type="bus_bus" depart="2316.64" departLane="best" departSpeed="max" from="-172699280" to="466393862#2"/>
    <trip id="bus169" type="bus_bus" depart="2344.38" departLane="best" departSpeed="max" from="-172699280" to="156974364"/>
    <trip id="bus171" type="bus_bus" depart="2372.13" departLane="best" departSpeed="max" from="-156974362" to="172699280"/>
    <trip id="bus172" type="bus_bus" depart="2386.00" departLane="best" departSpeed="max" from="-156974362" to="172699280"/>
    <trip id="bus173" type="bus_bus" depart="2399.87" departLane="best" departSpeed="max" from="-172699280" to="156974364"/>
    <trip id="bus176" type="bus_bus" depart="2441.49" departLane="best" departSpeed="max" from="-156974362" to="172699280"/>
    <trip id="bus177" type="bus_bus" depart="2455.36" departLane="best" departSpeed="max" from="-25440373#2" to="466393862#2"/>
    <trip id="bus178" type="bus_bus" depart="2469.23" departLane="best" departSpeed="max" from="-172699280" to="466393862#2"/>
    <trip id="bus179" type="bus_bus" depart="2483.10" departLane="best" departSpeed="max" from="-172699280" to="466393862#2"/>
    <trip id="bus180" type="bus_bus" depart="2496.98" departLane="best" departSpeed="max" from="-156974362" to="172699280"/>
    <trip id="bus182" type="bus_bus" depart="2524.72" departLane="best" departSpeed="max" from="-172699280" to="156974364"/>
    <trip id="bus183" type="bus_bus" depart="2538.59" departLane="best" departSpeed="max" from="-172699280" to="466393862#2"/>
    <trip id="bus184" type="bus_bus" depart="2552.47" departLane="best" departSpeed="max" from="-156974362" to="172699280"/>
    <trip id="bus185" type="bus_bus" depart="2566.34" departLane="best" departSpeed="max" from="-156974362" to="172699280"/>
    <trip id="bus186" type="bus_bus" depart="2580.21" departLane="best" departSpeed="max" from="341528499#0" to="466393862#2"/>
    <trip id="bus188" type="bus_bus" depart="2607.95" departLane="best" departSpeed="max" from="-172699280" to="466393862#2"/>
    <trip id="bus189" type="bus_bus" depart="2621.83" departLane="best" departSpeed="max" from="-25440373#2" to="466393862#2"/>
    <trip id="bus191" type="bus_bus" depart="2649.57" departLane="best" departSpeed="max" from="-172699280" to="156974364"/>
    <trip id="bus193" type="bus_bus" depart="2677.31" departLane="best" departSpeed="max" from="-172699280" to="156974364"/>
    <trip id="bus194" type="bus_bus" depart="2691.19" departLane="best" departSpeed="max" from="-172699280" to="466393862#2"/>
    <trip id="bus197" type="bus_bus" depart="2732.80" departLane="best" departSpeed="max" from="-172699280" to="156974364"/>
    <trip id="bus198" type="bus_bus" depart="2746.67" departLane="best" departSpeed="max" from="-172699280" to="156974364"/>
    <trip id="bus199" type="bus_bus" depart="2760.55" departLane="best" departSpeed="max" from="-25440373#2" to="466393862#2"/>
    <trip id="bus200" type="bus_bus" depart="2774.42" departLane="best" departSpeed="max" from="-25440373#2" to="466393862#2"/>
    <trip id="bus202" type="bus_bus" depart="2802.16" departLane="best" departSpeed="max" from="-172699280" to="466393862#2"/>
    <trip id="bus205" type="bus_bus" depart="2843.78" departLane="best" departSpeed="max" from="341528499#0" to="466393862#2"/>
    <trip id="bus206" type="bus_bus" depart="2857.65" departLane="best" departSpeed="max" from="341528499#0" to="466393862#2"/>
    <trip id="bus207" type="bus_bus" depart="2871.52" departLane="best" departSpeed="max" from="-172699280" to="156974364"/>
    <trip id="bus211" type="bus_bus" depart="2927.01" departLane="best" departSpeed="max" from="-172699280" to="466393862#2"/>
    <trip id="bus214" type="bus_bus" depart="2968.63" departLane="best" departSpeed="max" from="-172699280" to="156974364"/>
    <trip id="bus215" type="bus_bus" depart="2982.50" departLane="best" departSpeed="max" from="341528499#0" to="466393862#2"/>
    <trip id="bus217" type="bus_bus" depart="3010.24" departLane="best" departSpeed="max" from="-172699280" to="466393862#2"/>
    <trip id="bus218" type="bus_bus" depart="3024.12" departLane="best" departSpeed="max" from="-156974362" to="172699280"/>
    <trip id="bus219" type="bus_bus" depart="3037.99" departLane="best" departSpeed="max" from="-172699280" to="156974364"/>
    <trip id="bus220" type="bus_bus" depart="3051.86" departLane="best" departSpeed="max" from="-25440373#2" to="466393862#2"/>
    <trip id="bus221" type="bus_bus" depart="3065.73" departLane="best" departSpeed="max" from="-25440373#2" to="466393862#2"/>
    <trip id="bus223" type="bus_bus" depart="3093.48" departLane="best" departSpeed="max" from="-25440373#2" to="466393862#2"/>
    <trip id="bus224" type="bus_bus" depart="3107.35" departLane="best" departSpeed="max" from="-156974362" to="172699280"/>
    <trip id="bus225" type="bus_bus" depart="3121.22" departLane="best" departSpeed="max" from="-156974362" to="172699280"/>
    <trip id="bus226" type="bus_bus" depart="3135.09" departLane="best" departSpeed="max" from="341528499#0" to="466393862#2"/>
    <trip id="bus227" type="bus_bus" depart="3148.97" departLane="best" departSpeed="max" from="-156974362" to="172699280"/>
    <trip id="bus230" type="bus_bus" depart="3190.58" departLane="best" departSpeed="max" from="-172699280" to="156974364"/>
    <trip id="bus231" type="bus_bus" depart="3204.45" departLane="best" departSpeed="max" from="-25440373#2" to="466393862#2"/>
    <trip id="bus234" type="bus_bus" depart="3246.07" departLane="best" departSpeed="max" from="-25440373#2" to="466393862#2"/>
    <trip id="bus235" type="bus_bus" depart="3259.94" departLane="best" departSpeed="max" from="-156974362" to="172699280"/>
    <trip id="bus236" type="bus_bus" depart="3273.81" departLane="best" departSpeed="max" from="-25440373#2" to="466393862#2"/>
    <trip id="bus237" type="bus_bus" depart="3287.69" departLane="best" departSpeed="max" from="-172699280" to="466393862#2"/>
    <trip id="bus239" type="bus_bus" depart="3315.43" departLane="best" departSpeed="max" from="-172699280" to="466393862#2"/>
    <trip id="bus240" type="bus_bus" depart="3329.30" departLane="best" departSpeed="max" from="-172699280" to="156974364"/>
    <trip id="bus242" type="bus_bus" depart="3357.05" departLane="best" departSpeed="max" from="-172699280" to="156974364"/>
    <trip id="bus245" type="bus_bus" depart="3398.66" departLane="best" departSpeed="max" from="341528499#0" to="466393862#2"/>
    <trip id="bus246" type="bus_bus" depart="3412.54" departLane="best" departSpeed="max" from="-25440373#2" to="466393862#2"/>
    <trip id="bus247" type="bus_bus" depart="3426.41" departLane="best" departSpeed="max" from="-172699280" to="156974364"/>
    <trip id="bus248" type="bus_bus" depart="3440.28" departLane="best" departSpeed="max" from="-172699280" to="466393862#2"/>
    <trip id="bus249" type="bus_bus" depart="3454.15" departLane="best" departSpeed="max" from="-156974362" to="172699280"/>
    <trip id="bus251" type="bus_bus" depart="3481.90" departLane="best" departSpeed="max" from="-25440373#2" to="466393862#2"/>
    <trip id="bus253" type="bus_bus" depart="3509.64" departLane="best" departSpeed="max" from="-156974362" to="172699280"/>
    <trip id="bus254" type="bus_bus" depart="3523.51" departLane="best" departSpeed="max" from="341528499#0" to="466393862#2"/>
    <trip id="bus255" type="bus_bus" depart="3537.38" departLane="best" departSpeed="max" from="-172699280" to="466393862#2"/>
    <trip id="bus256" type="bus_bus" depart="3551.26" departLane="best" departSpeed="max" from="-25440373#2" to="466393862#2"/>
    <trip id="bus258" type="bus_bus" depart="3579.00" departLane="best" departSpeed="max" from="-25440373#2" to="466393862#2"/>
</routes>
