<?xml version="1.0" encoding="UTF-8"?>

<!-- generated on Sun Aug 30 15:46:00 2020 by Eclipse SUMO netconvert Version 1.6.0
<configuration xmlns:xsi="http://www.w3.org/2001/XMLSchema-instance" xsi:noNamespaceSchemaLocation="http://sumo.dlr.de/xsd/netconvertConfiguration.xsd">

    <input>
        <type-files value="/usr/share/sumo/data/typemap/osmNetconvert.typ.xml"/>
        <osm-files value="osm_bbox.osm.xml"/>
    </input>

    <output>
        <output-file value="osm.net.xml"/>
        <output.street-names value="true"/>
        <output.original-names value="true"/>
        <ptstop-output value="osm_stops.add.xml"/>
        <ptline-output value="osm_ptlines.xml"/>
    </output>

    <projection>
        <proj.utm value="true"/>
    </projection>

    <processing>
        <geometry.remove value="true"/>
        <roundabouts.guess value="true"/>
    </processing>

    <tls_building>
        <tls.discard-simple value="true"/>
        <tls.join value="true"/>
        <tls.guess-signals value="true"/>
        <tls.default-type value="actuated"/>
    </tls_building>

    <ramp_guessing>
        <ramps.guess value="true"/>
    </ramp_guessing>

    <junctions>
        <junctions.join value="true"/>
        <junctions.corner-detail value="5"/>
    </junctions>

    <railway>
        <railway.topology.repair value="true"/>
        <railway.topology.repair.stop-turn value="true"/>
    </railway>

    <report>
        <verbose value="true"/>
        <aggregate-warnings value="5"/>
    </report>

</configuration>
-->

<net version="1.6" junctionCornerDetail="5" limitTurnSpeed="5.50" xmlns:xsi="http://www.w3.org/2001/XMLSchema-instance" xsi:noNamespaceSchemaLocation="http://sumo.dlr.de/xsd/net_file.xsd">

    <location netOffset="-352011.26,-5261628.91" convBoundary="0.00,0.00,893.23,1560.71" origBoundary="19.035095,47.491440,19.046883,47.505372" projParameter="+proj=utm +zone=34 +ellps=WGS84 +datum=WGS84 +units=m +no_defs"/>

    <type id="highway.bridleway" priority="1" numLanes="1" speed="2.78" allow="pedestrian" oneway="1" width="2.00"/>
    <type id="highway.bus_guideway" priority="1" numLanes="1" speed="27.78" allow="bus" oneway="1"/>
    <type id="highway.cycleway" priority="1" numLanes="1" speed="8.33" allow="bicycle" oneway="0" width="1.00"/>
    <type id="highway.footway" priority="1" numLanes="1" speed="2.78" allow="pedestrian" oneway="1" width="2.00"/>
    <type id="highway.ford" priority="1" numLanes="1" speed="2.78" allow="army" oneway="0"/>
    <type id="highway.living_street" priority="2" numLanes="1" speed="2.78" disallow="tram rail_urban rail rail_electric rail_fast ship" oneway="0"/>
    <type id="highway.motorway" priority="14" numLanes="2" speed="39.44" allow="private emergency authority army vip passenger hov taxi bus coach delivery truck trailer motorcycle evehicle custom1 custom2" oneway="1"/>
    <type id="highway.motorway_link" priority="9" numLanes="1" speed="22.22" allow="private emergency authority army vip passenger hov taxi bus coach delivery truck trailer motorcycle evehicle custom1 custom2" oneway="1"/>
    <type id="highway.path" priority="1" numLanes="1" speed="2.78" allow="pedestrian bicycle" oneway="1" width="2.00"/>
    <type id="highway.pedestrian" priority="1" numLanes="1" speed="2.78" allow="pedestrian" oneway="1" width="2.00"/>
    <type id="highway.primary" priority="12" numLanes="2" speed="27.78" disallow="tram rail_urban rail rail_electric rail_fast ship" oneway="0"/>
    <type id="highway.primary_link" priority="7" numLanes="1" speed="22.22" disallow="tram rail_urban rail rail_electric rail_fast ship" oneway="0"/>
    <type id="highway.raceway" priority="15" numLanes="2" speed="83.33" allow="vip" oneway="0"/>
    <type id="highway.residential" priority="3" numLanes="1" speed="13.89" disallow="tram rail_urban rail rail_electric rail_fast ship" oneway="0"/>
    <type id="highway.secondary" priority="11" numLanes="1" speed="27.78" disallow="tram rail_urban rail rail_electric rail_fast ship" oneway="0"/>
    <type id="highway.secondary_link" priority="6" numLanes="1" speed="22.22" disallow="tram rail_urban rail rail_electric rail_fast ship" oneway="0"/>
    <type id="highway.service" priority="1" numLanes="1" speed="5.56" allow="pedestrian delivery bicycle" oneway="0"/>
    <type id="highway.stairs" priority="1" numLanes="1" speed="1.39" allow="pedestrian" oneway="1" width="2.00"/>
    <type id="highway.step" priority="1" numLanes="1" speed="1.39" allow="pedestrian" oneway="1" width="2.00"/>
    <type id="highway.steps" priority="1" numLanes="1" speed="1.39" allow="pedestrian" oneway="1" width="2.00"/>
    <type id="highway.tertiary" priority="10" numLanes="1" speed="22.22" disallow="tram rail_urban rail rail_electric rail_fast ship" oneway="0"/>
    <type id="highway.tertiary_link" priority="5" numLanes="1" speed="22.22" disallow="tram rail_urban rail rail_electric rail_fast ship" oneway="0"/>
    <type id="highway.track" priority="1" numLanes="1" speed="5.56" disallow="tram rail_urban rail rail_electric rail_fast ship" oneway="0"/>
    <type id="highway.trunk" priority="13" numLanes="2" speed="27.78" disallow="pedestrian bicycle tram rail_urban rail rail_electric rail_fast ship" oneway="0"/>
    <type id="highway.trunk_link" priority="8" numLanes="1" speed="22.22" disallow="pedestrian bicycle tram rail_urban rail rail_electric rail_fast ship" oneway="0"/>
    <type id="highway.unclassified" priority="4" numLanes="1" speed="13.89" disallow="tram rail_urban rail rail_electric rail_fast ship" oneway="0"/>
    <type id="highway.unsurfaced" priority="1" numLanes="1" speed="8.33" disallow="tram rail_urban rail rail_electric rail_fast ship" oneway="0"/>
    <type id="railway.highspeed" priority="21" numLanes="1" speed="69.44" allow="rail_fast" oneway="1"/>
    <type id="railway.light_rail" priority="19" numLanes="1" speed="27.78" allow="rail_urban" oneway="1"/>
    <type id="railway.preserved" priority="16" numLanes="1" speed="27.78" allow="rail" oneway="1"/>
    <type id="railway.rail" priority="20" numLanes="1" speed="44.44" allow="rail" oneway="1"/>
    <type id="railway.subway" priority="18" numLanes="1" speed="27.78" allow="rail_urban" oneway="1"/>
    <type id="railway.tram" priority="17" numLanes="1" speed="13.89" allow="tram" oneway="1"/>

    <edge id=":1316557321_0" function="internal">
        <lane id=":1316557321_0_0" index="0" allow="bicycle" speed="4.40" length="3.25" width="1.00" shape="442.00,700.84 441.14,700.80 440.40,701.01 439.79,701.47 439.29,702.17"/>
    </edge>
    <edge id=":1316557321_1" function="internal">
        <lane id=":1316557321_1_0" index="0" allow="bicycle" speed="7.79" length="4.64" width="1.00" shape="442.00,700.84 440.66,700.57 439.76,700.23 439.01,699.64 438.10,698.63"/>
    </edge>
    <edge id=":1316557321_2" function="internal">
        <lane id=":1316557321_2_0" index="0" allow="bicycle" speed="2.04" length="1.46" width="1.00" shape="442.00,700.84 441.67,700.53 441.59,700.26 441.76,700.04 442.17,699.86"/>
    </edge>
    <edge id=":1316557321_3" function="internal">
        <lane id=":1316557321_3_0" index="0" allow="bicycle" speed="7.19" length="3.94" width="1.00" shape="438.86,697.98 439.63,698.84 440.27,699.34 441.04,699.63 442.17,699.86"/>
    </edge>
    <edge id=":1316557321_4" function="internal">
        <lane id=":1316557321_4_0" index="0" allow="bicycle" speed="5.28" length="4.49" width="1.00" shape="438.86,697.98 439.50,698.96 439.78,699.99 439.71,701.05 439.29,702.17"/>
    </edge>
    <edge id=":1316557321_5" function="internal">
        <lane id=":1316557321_5_0" index="0" allow="bicycle" speed="2.04" length="1.46" width="1.00" shape="438.86,697.98 438.91,698.43 438.80,698.69 438.53,698.75 438.10,698.63"/>
    </edge>
    <edge id=":1316557321_6" function="internal">
        <lane id=":1316557321_6_0" index="0" allow="bicycle" speed="4.56" length="3.29" width="1.00" shape="438.41,701.70 438.72,700.88 438.77,700.10 438.56,699.35 438.10,698.63"/>
    </edge>
    <edge id=":1316557321_7" function="internal">
        <lane id=":1316557321_7_0" index="0" allow="bicycle" speed="5.13" length="4.51" width="1.00" shape="438.41,701.70 439.10,700.72 439.95,700.09 440.98,699.80 442.17,699.86"/>
    </edge>
    <edge id=":1316557321_8" function="internal">
        <lane id=":1316557321_8_0" index="0" allow="bicycle" speed="2.04" length="1.46" width="1.00" shape="438.41,701.70 438.80,701.48 439.08,701.49 439.24,701.72 439.29,702.17"/>
    </edge>
    <edge id=":1692096449_0" function="internal">
        <lane id=":1692096449_0_0" index="0" disallow="tram rail_urban rail rail_electric rail_fast ship" speed="3.65" length="4.67" shape="-0.41,677.34 -1.36,676.26 -1.55,675.38 -0.96,674.71 0.41,674.24"/>
    </edge>
    <edge id=":1692096452_0" function="internal">
        <lane id=":1692096452_0_0" index="0" disallow="tram rail_urban rail rail_electric rail_fast ship" speed="6.65" length="8.21" shape="353.66,771.28 351.62,771.07 349.85,771.59 348.34,772.85 347.10,774.85"/>
    </edge>
    <edge id=":1692096452_1" function="internal">
        <lane id=":1692096452_1_0" index="0" disallow="tram rail_urban rail rail_electric rail_fast ship" speed="13.89" length="9.72" shape="353.66,771.28 344.31,768.64"/>
    </edge>
    <edge id=":1692096452_2" function="internal">
        <lane id=":1692096452_2_0" index="0" disallow="tram rail_urban rail rail_electric rail_fast ship" speed="13.89" length="9.21" shape="345.21,765.57 347.83,766.36 349.64,766.86 351.47,767.24 354.17,767.64"/>
    </edge>
    <edge id=":1768513859_0" function="internal">
        <lane id=":1768513859_0_0" index="0" allow="bicycle" speed="3.63" length="3.21" shape="426.26,742.86 425.36,742.79 424.70,743.03 424.29,743.60 424.12,744.48"/>
    </edge>
    <edge id=":1768513859_1" function="internal">
        <lane id=":1768513859_1_0" index="0" allow="bicycle" speed="8.33" length="6.73" width="1.00" shape="426.26,742.86 424.32,742.40 423.00,742.06 421.69,741.66 419.79,741.04"/>
    </edge>
    <edge id=":1768513859_2" function="internal">
        <lane id=":1768513859_2_0" index="0" allow="bicycle" speed="2.04" length="1.46" width="1.00" shape="426.26,742.86 425.95,742.54 425.89,742.26 426.07,742.05 426.49,741.89"/>
    </edge>
    <edge id=":1768513859_3" function="internal">
        <lane id=":1768513859_3_0" index="0" allow="bicycle" speed="4.83" length="4.03" width="1.00" shape="424.51,738.84 424.55,739.98 424.89,740.87 425.54,741.51 426.49,741.89"/>
    </edge>
    <edge id=":1768513859_4" function="internal">
        <lane id=":1768513859_4_0" index="0" disallow="tram rail_urban rail rail_electric rail_fast ship" speed="13.89" length="5.71" shape="423.42,738.74 423.02,744.43"/>
    </edge>
    <edge id=":1768513859_5" function="internal">
        <lane id=":1768513859_5_0" index="0" allow="bicycle" speed="4.40" length="4.18" width="1.00" shape="422.32,738.64 422.05,739.96 421.54,740.81 420.79,741.16 419.79,741.04"/>
    </edge>
    <edge id=":1768513859_6" function="internal">
        <lane id=":1768513859_6_0" index="0" allow="bicycle" speed="8.33" length="6.64" width="1.00" shape="420.10,740.09 421.98,740.70 423.27,741.10 424.57,741.44 426.49,741.89"/>
    </edge>
    <edge id=":1768513859_7" function="internal">
        <lane id=":1768513859_7_0" index="0" allow="bicycle" speed="5.96" length="6.42" shape="420.10,740.09 421.91,740.88 423.18,741.87 423.92,743.08 424.12,744.48"/>
    </edge>
    <edge id=":1768513859_8" function="internal">
        <lane id=":1768513859_8_0" index="0" allow="bicycle" speed="2.04" length="1.46" width="1.00" shape="420.10,740.09 420.38,740.44 420.42,740.72 420.22,740.92 419.79,741.04"/>
    </edge>
    <edge id=":1965448433_0" function="internal">
        <lane id=":1965448433_0_0" index="0" allow="bicycle" speed="2.04" length="1.46" width="1.00" shape="801.94,-0.23 802.34,-0.45 802.62,-0.44 802.78,-0.22 802.83,0.23"/>
    </edge>
    <edge id=":2055689575_0" function="internal">
        <lane id=":2055689575_0_0" index="0" disallow="tram rail_urban rail rail_electric rail_fast ship" speed="3.65" length="4.67" shape="354.26,899.78 353.20,898.80 352.93,897.94 353.46,897.22 354.77,896.62"/>
    </edge>
    <edge id=":2055689576_0" function="internal">
        <lane id=":2055689576_0_0" index="0" disallow="tram rail_urban rail rail_electric rail_fast ship" speed="3.65" length="4.67" shape="316.71,889.91 317.75,890.91 318.01,891.77 317.47,892.49 316.15,893.06"/>
    </edge>
    <edge id=":2398785890_0" function="internal">
        <lane id=":2398785890_0_0" index="0" disallow="tram rail_urban rail rail_electric rail_fast ship" speed="3.65" length="4.67" shape="516.05,536.69 517.35,536.06 518.24,536.13 518.73,536.88 518.80,538.32"/>
    </edge>
    <edge id=":255653419_0" function="internal">
        <lane id=":255653419_0_0" index="0" disallow="tram rail_urban rail rail_electric rail_fast ship" speed="13.89" length="8.24" shape="341.42,787.02 338.11,794.56"/>
    </edge>
    <edge id=":259023010_0" function="internal">
        <lane id=":259023010_0_0" index="0" disallow="tram rail_urban rail rail_electric rail_fast ship" speed="7.92" length="10.54" shape="304.21,890.95 301.09,890.70 298.51,891.18 296.48,892.38 294.99,894.30"/>
    </edge>
    <edge id=":259023010_1" function="internal">
        <lane id=":259023010_1_0" index="0" disallow="tram rail_urban rail rail_electric rail_fast ship" speed="3.65" length="2.56" shape="304.21,890.95 303.17,889.95 302.92,889.09 303.05,888.91"/>
    </edge>
    <edge id=":259023010_4" function="internal">
        <lane id=":259023010_4_0" index="0" disallow="tram rail_urban rail rail_electric rail_fast ship" speed="3.65" length="2.11" shape="303.05,888.91 303.45,888.38 304.77,887.80"/>
    </edge>
    <edge id=":259023010_2" function="internal">
        <lane id=":259023010_2_0" index="0" disallow="tram rail_urban rail rail_electric rail_fast ship" speed="6.07" length="9.07" shape="301.21,881.22 300.55,883.70 300.92,885.63 302.33,886.99 304.77,887.80"/>
    </edge>
    <edge id=":259023010_3" function="internal">
        <lane id=":259023010_3_0" index="0" disallow="tram rail_urban rail rail_electric rail_fast ship" speed="13.89" length="14.49" shape="301.21,881.22 299.74,884.58 298.25,887.83 296.68,891.04 294.99,894.30"/>
    </edge>
    <edge id=":259023011_0" function="internal">
        <lane id=":259023011_0_0" index="0" disallow="tram rail_urban rail rail_electric rail_fast ship" speed="13.89" length="14.54" shape="382.38,895.63 379.26,909.83"/>
    </edge>
    <edge id=":259023011_1" function="internal">
        <lane id=":259023011_1_0" index="0" disallow="tram rail_urban rail rail_electric rail_fast ship" speed="8.16" length="5.97" shape="382.38,895.63 381.07,899.23 379.60,900.80"/>
    </edge>
    <edge id=":259023011_2" function="internal">
        <lane id=":259023011_2_0" index="0" disallow="tram rail_urban rail rail_electric rail_fast ship" speed="3.65" length="2.34" shape="382.38,895.63 381.35,896.64 380.49,896.88"/>
    </edge>
    <edge id=":259023011_9" function="internal">
        <lane id=":259023011_9_0" index="0" disallow="tram rail_urban rail rail_electric rail_fast ship" speed="8.16" length="8.35" shape="379.60,900.80 378.87,901.59 375.78,902.72 371.80,902.62"/>
    </edge>
    <edge id=":259023011_10" function="internal">
        <lane id=":259023011_10_0" index="0" disallow="tram rail_urban rail rail_electric rail_fast ship" speed="3.65" length="2.34" shape="380.49,896.88 379.78,896.32 379.24,894.99"/>
    </edge>
    <edge id=":259023011_3" function="internal">
        <lane id=":259023011_3_0" index="0" disallow="tram rail_urban rail rail_electric rail_fast ship" speed="6.70" length="9.32" shape="372.31,899.46 374.93,899.54 376.95,898.82 378.39,897.30 379.24,894.99"/>
    </edge>
    <edge id=":259023011_4" function="internal">
        <lane id=":259023011_4_0" index="0" disallow="tram rail_urban rail rail_electric rail_fast ship" speed="7.88" length="14.46" shape="372.31,899.46 376.13,900.66 378.56,902.79 379.60,905.84 379.26,909.83"/>
    </edge>
    <edge id=":259023011_5" function="internal">
        <lane id=":259023011_5_0" index="0" disallow="tram rail_urban rail rail_electric rail_fast ship" speed="3.65" length="4.67" shape="372.31,899.46 373.37,900.45 373.63,901.30 373.11,902.02 371.80,902.62"/>
    </edge>
    <edge id=":259023011_6" function="internal">
        <lane id=":259023011_6_0" index="0" disallow="tram rail_urban rail rail_electric rail_fast ship" speed="6.36" length="9.04" shape="376.14,909.10 376.36,906.61 375.70,904.70 374.18,903.37 371.80,902.62"/>
    </edge>
    <edge id=":259023011_7" function="internal">
        <lane id=":259023011_7_0" index="0" disallow="tram rail_urban rail rail_electric rail_fast ship" speed="11.11" length="14.45" shape="376.14,909.10 379.24,894.99"/>
    </edge>
    <edge id=":259023011_8" function="internal">
        <lane id=":259023011_8_0" index="0" disallow="tram rail_urban rail rail_electric rail_fast ship" speed="3.65" length="2.34" shape="376.14,909.10 377.19,908.11 378.06,907.91"/>
    </edge>
    <edge id=":259023011_11" function="internal">
        <lane id=":259023011_11_0" index="0" disallow="tram rail_urban rail rail_electric rail_fast ship" speed="3.65" length="2.34" shape="378.06,907.91 378.75,908.48 379.26,909.83"/>
    </edge>
    <edge id=":263342276_0" function="internal">
        <lane id=":263342276_0_0" index="0" allow="tram" speed="13.89" length="0.28" shape="485.93,702.81 485.85,703.07"/>
    </edge>
    <edge id=":2692654240_0" function="internal">
        <lane id=":2692654240_0_0" index="0" allow="bicycle" speed="5.35" length="6.86" width="1.00" shape="432.20,740.58 431.65,742.06 430.56,742.95 428.92,743.26 426.74,742.98"/>
    </edge>
    <edge id=":2692654240_1" function="internal">
        <lane id=":2692654240_1_0" index="0" allow="bicycle" speed="2.44" length="0.19" width="1.00" shape="432.20,740.58 432.02,740.57"/>
    </edge>
    <edge id=":2692654240_4" function="internal">
        <lane id=":2692654240_4_0" index="0" allow="bicycle" speed="2.44" length="2.21" width="1.00" shape="432.02,740.57 431.47,740.52 431.09,740.26 431.07,739.80 431.42,739.14"/>
    </edge>
    <edge id=":2692654240_2" function="internal">
        <lane id=":2692654240_2_0" index="0" allow="bicycle" speed="5.08" length="6.14" width="1.00" shape="426.96,742.00 428.69,742.16 430.01,741.74 430.92,740.73 431.42,739.14"/>
    </edge>
    <edge id=":2692654240_3" function="internal">
        <lane id=":2692654240_3_0" index="0" allow="bicycle" speed="2.04" length="0.73" width="1.00" shape="426.96,742.00 427.27,742.33 427.34,742.60"/>
    </edge>
    <edge id=":2692654240_5" function="internal">
        <lane id=":2692654240_5_0" index="0" allow="bicycle" speed="2.04" length="0.73" width="1.00" shape="427.34,742.60 427.16,742.82 426.74,742.98"/>
    </edge>
    <edge id=":288825239_0" function="internal">
        <lane id=":288825239_0_0" index="0" allow="bicycle" speed="2.04" length="1.46" width="1.00" shape="443.07,866.17 443.41,865.87 443.69,865.82 443.90,866.00 444.04,866.43"/>
    </edge>
    <edge id=":290066486_0" function="internal">
        <lane id=":290066486_0_0" index="0" disallow="tram rail_urban rail rail_electric rail_fast ship" speed="13.89" length="8.00" shape="390.16,803.43 389.73,801.09 389.48,799.44 388.95,797.91 387.73,795.93"/>
    </edge>
    <edge id=":290066486_1" function="internal">
        <lane id=":290066486_1_0" index="0" disallow="tram rail_urban rail rail_electric rail_fast ship" speed="13.89" length="8.06" shape="393.64,801.20 391.55,800.08 390.22,799.10 389.13,797.86 387.73,795.93"/>
    </edge>
    <edge id=":310328884_0" function="internal">
        <lane id=":310328884_0_0" index="0" allow="pedestrian bicycle" speed="2.78" length="4.67" width="2.00" shape="373.03,653.33 371.68,653.63 370.77,653.91 369.91,654.33 368.74,655.06"/>
    </edge>
    <edge id=":310328884_1" function="internal">
        <lane id=":310328884_1_0" index="0" allow="pedestrian bicycle" speed="2.78" length="4.04" width="2.00" shape="373.03,653.33 371.92,653.41 371.06,653.12 370.44,652.45 370.06,651.41"/>
    </edge>
    <edge id=":310328887_0" function="internal">
        <lane id=":310328887_0_0" index="0" allow="pedestrian bicycle" speed="2.78" length="4.91" width="2.00" shape="321.32,703.48 320.60,704.75 320.14,705.66 319.88,706.62 319.79,708.06"/>
    </edge>
    <edge id=":3382957823_0" function="internal">
        <lane id=":3382957823_0_0" index="0" disallow="tram rail_urban rail rail_electric rail_fast ship" speed="3.65" length="4.67" shape="472.32,515.26 473.45,514.36 474.33,514.23 474.97,514.85 475.36,516.24"/>
    </edge>
    <edge id=":35523895_0" function="internal">
        <lane id=":35523895_0_0" index="0" disallow="tram rail_urban rail rail_electric rail_fast ship" speed="13.89" length="8.41" shape="415.75,802.97 413.58,804.11 412.29,805.21 411.18,806.58 409.54,808.47"/>
    </edge>
    <edge id=":35523895_1" function="internal">
        <lane id=":35523895_1_0" index="0" disallow="tram rail_urban rail rail_electric rail_fast ship" speed="13.89" length="8.46" shape="415.75,802.97 413.45,803.97 411.80,804.53 410.09,804.76 407.60,804.77"/>
    </edge>
    <edge id=":35523902_0" function="internal">
        <lane id=":35523902_0_0" index="0" disallow="tram rail_urban rail rail_electric rail_fast ship" speed="3.65" length="4.67" shape="858.79,895.14 859.76,896.22 859.95,897.09 859.36,897.77 858.00,898.24"/>
    </edge>
    <edge id=":378705837_0" function="internal">
        <lane id=":378705837_0_0" index="0" disallow="tram rail_urban rail rail_electric rail_fast ship" speed="13.89" length="0.39" shape="426.15,709.92 426.11,710.03 426.09,710.10 426.07,710.18 426.06,710.30"/>
    </edge>
    <edge id=":378705837_1" function="internal">
        <lane id=":378705837_1_0" index="0" disallow="tram rail_urban rail rail_electric rail_fast ship" speed="13.89" length="1.19" shape="422.76,709.98 423.13,708.85"/>
    </edge>
    <edge id=":4303193426_0" function="internal">
        <lane id=":4303193426_0_0" index="0" disallow="tram rail_urban rail rail_electric rail_fast ship" speed="13.31" length="7.38" shape="399.31,756.94 401.25,756.04 402.40,755.09 403.35,753.86 404.73,752.15"/>
    </edge>
    <edge id=":4303193426_1" function="internal">
        <lane id=":4303193426_1_0" index="0" disallow="tram rail_urban rail rail_electric rail_fast ship" speed="13.89" length="7.40" shape="399.31,756.94 401.39,756.27 402.86,756.01 404.38,755.93 406.58,755.79"/>
    </edge>
    <edge id=":4303202169_0" function="internal">
        <lane id=":4303202169_0_0" index="0" allow="pedestrian delivery bicycle" speed="3.65" length="4.67" shape="411.93,641.72 413.14,640.93 414.03,640.88 414.61,641.56 414.87,642.98"/>
    </edge>
    <edge id=":4595333545_0" function="internal">
        <lane id=":4595333545_0_0" index="0" disallow="tram rail_urban rail rail_electric rail_fast ship" speed="16.67" length="0.28" shape="465.92,826.38 465.85,826.65"/>
    </edge>
    <edge id=":4595333545_1" function="internal">
        <lane id=":4595333545_1_0" index="0" disallow="tram rail_urban rail rail_electric rail_fast ship" speed="16.67" length="0.31" shape="462.75,825.83 462.84,825.53"/>
    </edge>
    <edge id=":4595333546_0" function="internal">
        <lane id=":4595333546_0_0" index="0" disallow="tram rail_urban rail rail_electric rail_fast ship" speed="3.65" length="4.67" shape="595.59,422.49 596.78,421.68 597.67,421.61 598.27,422.28 598.56,423.69"/>
    </edge>
    <edge id=":48826147_0" function="internal">
        <lane id=":48826147_0_0" index="0" disallow="tram rail_urban rail rail_electric rail_fast ship" speed="3.65" length="4.67" shape="370.15,948.89 369.10,949.88 368.23,950.09 367.54,949.52 367.04,948.17"/>
    </edge>
    <edge id=":5111008535_0" function="internal">
        <lane id=":5111008535_0_0" index="0" allow="tram" speed="8.33" length="0.10" shape="437.44,865.84 437.44,865.84"/>
    </edge>
    <edge id=":5219690926_0" function="internal">
        <lane id=":5219690926_0_0" index="0" allow="bicycle" speed="2.04" length="1.46" width="1.00" shape="451.73,776.22 451.28,776.23 451.04,776.09 451.00,775.81 451.16,775.39"/>
    </edge>
    <edge id=":5219690928_0" function="internal">
        <lane id=":5219690928_0_0" index="0" allow="tram" speed="2.78" length="6.74" shape="441.68,835.75 441.58,833.75 441.50,832.36 441.21,831.02 440.49,829.17"/>
    </edge>
    <edge id=":5219690929_0" function="internal">
        <lane id=":5219690929_0_0" index="0" allow="tram" speed="2.78" length="6.26" shape="444.74,830.47 445.17,832.28 445.40,833.53 445.45,834.81 445.36,836.66"/>
    </edge>
    <edge id=":5440888519_0" function="internal">
        <lane id=":5440888519_0_0" index="0" allow="pedestrian delivery bicycle" speed="5.56" length="1.98" shape="425.36,917.86 425.17,918.41 424.96,918.77 424.78,919.13 424.69,919.70"/>
    </edge>
    <edge id=":5440888519_1" function="internal">
        <lane id=":5440888519_1_0" index="0" allow="pedestrian delivery bicycle" speed="3.65" length="4.67" shape="425.36,917.86 424.31,918.85 423.44,919.06 422.75,918.49 422.24,917.14"/>
    </edge>
    <edge id=":5440888519_2" function="internal">
        <lane id=":5440888519_2_0" index="0" allow="pedestrian delivery bicycle" speed="5.56" length="5.09" shape="420.78,922.01 422.24,917.14"/>
    </edge>
    <edge id=":5440888519_3" function="internal">
        <lane id=":5440888519_3_0" index="0" allow="pedestrian delivery bicycle" speed="5.56" length="17.91" shape="420.78,922.01 422.72,914.98 424.02,912.25 424.68,913.82 424.69,919.70"/>
    </edge>
    <edge id=":5440888622_0" function="internal">
        <lane id=":5440888622_0_0" index="0" allow="pedestrian delivery bicycle" speed="5.56" length="5.49" shape="409.35,961.86 410.34,960.55 411.06,959.67 411.61,958.71 412.10,957.18"/>
    </edge>
    <edge id=":5866142104_0" function="internal">
        <lane id=":5866142104_0_0" index="0" allow="pedestrian delivery bicycle" speed="3.65" length="4.67" shape="387.81,825.32 386.65,824.45 386.30,823.63 386.74,822.86 387.98,822.12"/>
    </edge>
    <edge id=":699789613_0" function="internal">
        <lane id=":699789613_0_0" index="0" disallow="tram rail_urban rail rail_electric rail_fast ship" speed="8.16" length="5.22" shape="382.88,786.57 382.30,785.18 381.66,784.34 380.75,783.71 379.40,782.95"/>
    </edge>
    <edge id=":699789613_1" function="internal">
        <lane id=":699789613_1_0" index="0" disallow="tram rail_urban rail rail_electric rail_fast ship" speed="13.89" length="6.35" shape="382.88,786.57 382.35,784.78 382.18,783.51 382.19,782.20 382.25,780.32"/>
    </edge>
    <edge id=":699789615_0" function="internal">
        <lane id=":699789615_0_0" index="0" disallow="tram rail_urban rail rail_electric rail_fast ship" speed="7.61" length="5.89" shape="381.94,767.21 383.65,767.07 385.12,766.69 386.33,766.06 387.28,765.19"/>
    </edge>
    <edge id=":699789615_1" function="internal">
        <lane id=":699789615_1_0" index="0" disallow="tram rail_urban rail rail_electric rail_fast ship" speed="13.89" length="6.80" shape="384.06,771.11 384.79,769.22 385.33,767.94 386.04,766.76 387.28,765.19"/>
    </edge>
    <edge id=":699789617_0" function="internal">
        <lane id=":699789617_0_0" index="0" disallow="tram rail_urban rail rail_electric rail_fast ship" speed="13.89" length="7.65" shape="423.81,757.97 424.06,760.24 424.21,761.84 424.66,763.32 425.84,765.20"/>
    </edge>
    <edge id=":699789617_1" function="internal">
        <lane id=":699789617_1_0" index="0" disallow="tram rail_urban rail rail_electric rail_fast ship" speed="13.89" length="7.66" shape="420.29,759.97 422.07,761.39 423.31,762.35 424.43,763.43 425.84,765.20"/>
    </edge>
    <edge id=":699789621_0" function="internal">
        <lane id=":699789621_0_0" index="0" disallow="tram rail_urban rail rail_electric rail_fast ship" speed="9.01" length="6.73" shape="430.62,775.70 431.19,777.53 432.00,778.62 433.17,779.47 434.85,780.57"/>
    </edge>
    <edge id=":699789621_1" function="internal">
        <lane id=":699789621_1_0" index="0" disallow="tram rail_urban rail rail_electric rail_fast ship" speed="13.89" length="6.88" shape="430.62,775.70 431.08,777.69 431.35,779.08 431.38,780.48 431.08,782.48"/>
    </edge>
    <edge id=":699789622_0" function="internal">
        <lane id=":699789622_0_0" index="0" disallow="tram rail_urban rail rail_electric rail_fast ship" speed="10.85" length="6.71" shape="430.46,795.44 428.47,795.68 427.00,795.73 425.71,796.08 424.22,797.25"/>
    </edge>
    <edge id=":699789622_1" function="internal">
        <lane id=":699789622_1_0" index="0" disallow="tram rail_urban rail rail_electric rail_fast ship" speed="13.89" length="6.97" shape="428.34,791.73 427.49,793.59 426.70,794.76 425.70,795.80 424.22,797.25"/>
    </edge>
    <edge id=":699789623_0" function="internal">
        <lane id=":699789623_0_0" index="0" disallow="tram rail_urban rail rail_electric rail_fast ship" speed="11.11" length="4.32" shape="451.15,794.26 449.91,793.93 449.05,793.73 448.17,793.64 446.89,793.62"/>
    </edge>
    <edge id=":699789623_1" function="internal">
        <lane id=":699789623_1_0" index="0" disallow="tram rail_urban rail rail_electric rail_fast ship" speed="3.65" length="2.34" shape="451.15,794.26 450.18,793.18 449.99,792.31"/>
    </edge>
    <edge id=":699789623_3" function="internal">
        <lane id=":699789623_3_0" index="0" disallow="tram rail_urban rail rail_electric rail_fast ship" speed="3.65" length="2.34" shape="449.99,792.31 450.58,791.63 451.94,791.16"/>
    </edge>
    <edge id=":699789623_2" function="internal">
        <lane id=":699789623_2_0" index="0" disallow="tram rail_urban rail rail_electric rail_fast ship" speed="11.11" length="3.47" shape="448.77,789.81 449.65,790.34 450.28,790.66 450.94,790.89 451.94,791.16"/>
    </edge>