<?xml version="1.0" encoding="UTF-8"?>

<!-- generated on 2020. aug. 25., kedd, 00:53:24 CEST by Eclipse SUMO netedit Version 1.6.0
<configuration xmlns:xsi="http://www.w3.org/2001/XMLSchema-instance" xsi:noNamespaceSchemaLocation="http://sumo.dlr.de/xsd/netconvertConfiguration.xsd">

    <input>
        <sumo-net-file value="/home/simon5521/Projects/TMIT_IoT_verseny_2020/TrafficSimulation/test1.net.xml"/>
    </input>

    <output>
        <output-file value="/home/simon5521/Projects/TMIT_IoT_verseny_2020/TrafficSimulation/test1.net.xml"/>
    </output>

    <processing>
        <geometry.min-radius.fix.railways value="false"/>
        <geometry.max-grade.fix value="false"/>
        <offset.disable-normalization value="true"/>
        <lefthand value="false"/>
    </processing>

    <junctions>
        <no-turnarounds value="true"/>
        <junctions.corner-detail value="5"/>
        <junctions.limit-turn-speed value="5.5"/>
        <rectangular-lane-cut value="false"/>
    </junctions>

    <pedestrian>
        <walkingareas value="false"/>
    </pedestrian>

    <netedit>
        <additional-files value="/home/simon5521/Projects/TMIT_IoT_verseny_2020/TrafficSimulation/test1.add.xml"/>
        <route-files value="/home/simon5521/Projects/TMIT_IoT_verseny_2020/TrafficSimulation/test1.rou.xml"/>
    </netedit>

    <report>
        <aggregate-warnings value="5"/>
    </report>

</configuration>
-->

<net version="1.6" junctionCornerDetail="5" limitTurnSpeed="5.50" xmlns:xsi="http://www.w3.org/2001/XMLSchema-instance" xsi:noNamespaceSchemaLocation="http://sumo.dlr.de/xsd/net_file.xsd">

    <location netOffset="0.00,0.00" convBoundary="0.00,50.00,200.00,50.00" origBoundary="-10000000000.00,-10000000000.00,10000000000.00,10000000000.00" projParameter="!"/>

    <edge id=":gneJ14_0" function="internal">
        <lane id=":gneJ14_0_0" index="0" speed="13.89" length="0.10" shape="100.00,48.40 100.00,48.40"/>
    </edge>

    <edge id="gneE10" from="gneJ14" to="gneJ15" priority="-1">
        <lane id="gneE10_0" index="0" speed="13.89" length="100.00" shape="100.00,48.40 200.00,48.40"/>
    </edge>
    <edge id="gneE9" from="1" to="gneJ14" priority="-1">
        <lane id="gneE9_0" index="0" speed="13.89" length="100.00" shape="0.00,48.40 100.00,48.40"/>
    </edge>

    <junction id="1" type="dead_end" x="0.00" y="50.00" incLanes="" intLanes="" shape="0.00,50.00 0.00,46.80"/>
    <junction id="gneJ14" type="priority" x="100.00" y="50.00" incLanes="gneE9_0" intLanes=":gneJ14_0_0" shape="100.00,50.00 100.00,46.80 100.00,50.00">
        <request index="0" response="0" foes="0" cont="0"/>
    </junction>
    <junction id="gneJ15" type="dead_end" x="200.00" y="50.00" incLanes="gneE10_0" intLanes="" shape="200.00,46.80 200.00,50.00"/>

    <connection from="gneE9" to="gneE10" fromLane="0" toLane="0" via=":gneJ14_0_0" dir="s" state="M"/>

    <connection from=":gneJ14_0" to="gneE10" fromLane="0" toLane="0" dir="s" state="M"/>

</net>
