<?xml version="1.0" encoding="UTF-8"?>

<!-- generated on 2020. aug. 25., kedd, 00:47:02 CEST by Eclipse SUMO netedit Version 1.6.0
<configuration xmlns:xsi="http://www.w3.org/2001/XMLSchema-instance" xsi:noNamespaceSchemaLocation="http://sumo.dlr.de/xsd/netconvertConfiguration.xsd">

    <input>
        <sumo-net-file value="/home/simon5521/Projects/TMIT_IoT_verseny_2020/TrafficSimulation/test1.net.xml"/>
    </input>

    <output>
        <output-file value="/home/simon5521/Projects/TMIT_IoT_verseny_2020/TrafficSimulation/test1.net.xml"/>
    </output>

    <processing>
        <geometry.min-radius.fix.railways value="false"/>
        <geometry.max-grade.fix value="false"/>
        <offset.disable-normalization value="true"/>
        <lefthand value="false"/>
    </processing>

    <junctions>
        <no-turnarounds value="true"/>
        <junctions.corner-detail value="5"/>
        <junctions.limit-turn-speed value="5.5"/>
        <rectangular-lane-cut value="false"/>
    </junctions>

    <pedestrian>
        <walkingareas value="false"/>
    </pedestrian>

    <netedit>
        <additional-files value="/home/simon5521/Projects/TMIT_IoT_verseny_2020/TrafficSimulation/test1.add.xml"/>
        <route-files value="/home/simon5521/Projects/TMIT_IoT_verseny_2020/TrafficSimulation/test1.rou.xml"/>
    </netedit>

    <report>
        <aggregate-warnings value="5"/>
    </report>

</configuration>
-->

<routes xmlns:xsi="http://www.w3.org/2001/XMLSchema-instance" xsi:noNamespaceSchemaLocation="http://sumo.dlr.de/xsd/routes_file.xsd">
    <route edges="gneE9 gneE10" color="yellow" id="route_0"/>
    <vehicle id="vehicle_0" depart="0.00" route="route_0"/>
    <vehicle id="vehicle_1" depart="0.00" route="route_0"/>
    <vehicle id="vehicle_2" depart="0.00" route="route_0"/>
    <vehicle id="vehicle_3" depart="0.00" route="route_0"/>
</routes>
