<?xml version="1.0" encoding="UTF-8"?>

<!-- generated on 2020. aug. 25., kedd, 00:44:22 CEST by Eclipse SUMO GUI Version 1.6.0
-->

<configuration xmlns:xsi="http://www.w3.org/2001/XMLSchema-instance" xsi:noNamespaceSchemaLocation="http://sumo.dlr.de/xsd/sumoConfiguration.xsd">

    <input>
        <net-file value="/home/simon5521/Projects/TMIT_IoT_verseny_2020/TrafficSimulation/test1.net.xml"/>
        <route-files value="/home/simon5521/Projects/TMIT_IoT_verseny_2020/TrafficSimulation/test1.rou.xml"/>
        <additional-files value="/home/simon5521/Projects/TMIT_IoT_verseny_2020/TrafficSimulation/test1.add.xml"/>
    </input>

</configuration>
